# DIS package for  MODFLOW-2005, generated by Flopy.
        10       140       100         1         4         1
  0  0  0  0  0  0  0  0  0  0
OPEN/CLOSE                      .\delr.ref               1     (FREE) -1 delr                          
OPEN/CLOSE                      .\delc.ref               1     (FREE) -1 delc                          
OPEN/CLOSE                 .\model_top.ref               1     (FREE) -1 model_top                     
OPEN/CLOSE              .\botm_layer_1.ref               1     (FREE) -1 botm_layer_0                  
OPEN/CLOSE              .\botm_layer_2.ref               1     (FREE) -1 botm_layer_1                  
OPEN/CLOSE              .\botm_layer_3.ref               1     (FREE) -1 botm_layer_2                  
OPEN/CLOSE              .\botm_layer_4.ref               1     (FREE) -1 botm_layer_3                  
OPEN/CLOSE              .\botm_layer_5.ref               1     (FREE) -1 botm_layer_4                  
OPEN/CLOSE              .\botm_layer_6.ref               1     (FREE) -1 botm_layer_5                  
OPEN/CLOSE              .\botm_layer_7.ref               1     (FREE) -1 botm_layer_6                  
OPEN/CLOSE              .\botm_layer_8.ref               1     (FREE) -1 botm_layer_7                  
OPEN/CLOSE              .\botm_layer_9.ref               1     (FREE) -1 botm_layer_8                  
OPEN/CLOSE             .\botm_layer_10.ref               1     (FREE) -1 botm_layer_9                  
      1.000000             1  1.000000  SS 
