# PCG package for  MODFLOW-2005, generated by Flopy.
200 50 1 0
0.001 0.001 0.98 0 0 3 0.3 
