# WEL package for  MODFLOW-2005, generated by Flopy.
       167         1 
       167         0 # stress period 1
         open/close .\WEL_0000.dat
