# DRN package for  MODFLOW-2005, generated by Flopy.
     10420         1
     10420         0 # stress period 1
         open/close .\DRN_0000.dat
