# RIV package for  MODFLOW-2005, generated by Flopy.
      1528         1
      1528         0 # stress period 1
         open/close .\RIV_0000.dat
