# BAS6 package for  MODFLOW-2005, generated by Flopy.
FREE
OPEN/CLOSE            .\ibound_layer_1.ref               1     (FREE) -1 ibound_layer_0                
OPEN/CLOSE            .\ibound_layer_2.ref               1     (FREE) -1 ibound_layer_1                
OPEN/CLOSE            .\ibound_layer_3.ref               1     (FREE) -1 ibound_layer_2                
OPEN/CLOSE            .\ibound_layer_4.ref               1     (FREE) -1 ibound_layer_3                
OPEN/CLOSE            .\ibound_layer_5.ref               1     (FREE) -1 ibound_layer_4                
OPEN/CLOSE            .\ibound_layer_6.ref               1     (FREE) -1 ibound_layer_5                
OPEN/CLOSE            .\ibound_layer_7.ref               1     (FREE) -1 ibound_layer_6                
OPEN/CLOSE            .\ibound_layer_8.ref               1     (FREE) -1 ibound_layer_7                
OPEN/CLOSE            .\ibound_layer_9.ref               1     (FREE) -1 ibound_layer_8                
OPEN/CLOSE           .\ibound_layer_10.ref               1     (FREE) -1 ibound_layer_9                
   -999.99
OPEN/CLOSE              .\strt_layer_1.ref               1     (FREE) -1 strt_layer_0                  
OPEN/CLOSE              .\strt_layer_2.ref               1     (FREE) -1 strt_layer_1                  
OPEN/CLOSE              .\strt_layer_3.ref               1     (FREE) -1 strt_layer_2                  
OPEN/CLOSE              .\strt_layer_4.ref               1     (FREE) -1 strt_layer_3                  
OPEN/CLOSE              .\strt_layer_5.ref               1     (FREE) -1 strt_layer_4                  
OPEN/CLOSE              .\strt_layer_6.ref               1     (FREE) -1 strt_layer_5                  
OPEN/CLOSE              .\strt_layer_7.ref               1     (FREE) -1 strt_layer_6                  
OPEN/CLOSE              .\strt_layer_8.ref               1     (FREE) -1 strt_layer_7                  
OPEN/CLOSE              .\strt_layer_9.ref               1     (FREE) -1 strt_layer_8                  
OPEN/CLOSE             .\strt_layer_10.ref               1     (FREE) -1 strt_layer_9                  
