# Name file for MODFLOW-2005, generated by Flopy version 3.3.0.
#xll:0.0; yll:0.0; rotation:0.0; units:feet; lenuni:1; start_datetime:1-1-1970
LIST               2  my_model.list
DIS               11  my_model.dis
BAS6              13  my_model.bas
LPF               15  my_model.lpf
RCH               19  my_model.rch
OC                14  my_model.oc
PCG               27  my_model.pcg
DATA(BINARY)       1  my_model.cbc REPLACE
DATA(BINARY)      51  my_model.hds REPLACE
