# RIV package for  MODFLOW-2005, generated by Flopy.
      1202         0
      1202         0 # stress period 1
         1         1        34          640.93          5000.0          637.93
         1         1        49          645.27          5000.0          642.27
         1         1        50          645.27          5000.0          642.27
         1         1        50          648.36          5000.0          645.36
         1         2        34           640.0          5000.0           637.0
         1         2        49          645.26          5000.0          642.26
         1         2        33           639.3          5000.0           636.3
         1         2        34          639.54          5000.0          636.54
         1         2        34          652.87          5000.0          649.87
         1         2        35          667.66          5000.0          664.66
         1         2        49          645.26          5000.0          642.26
         1         3        33          638.52          5000.0          635.52
         1         3        34           653.4          5000.0           650.4
         1         3        35          658.23          5000.0          655.23
         1         3        35          662.64          5000.0          659.64
         1         3        49          645.06          5000.0          642.06
         1         4        31          647.38          5000.0          644.38
         1         4        32          638.06          5000.0          635.06
         1         4        33          638.52          5000.0          635.52
         1         4        49          638.26          5000.0          635.26
         1         4        50          646.63          5000.0          643.63
         1         4        31           647.2          5000.0           644.2
         1         4        32          637.76          5000.0          634.76
         1         4        49          638.26          5000.0          635.26
         1         4        50           646.6          5000.0           643.6
         1         4        50          646.55          5000.0          643.55
         1         5        32          636.36          5000.0          633.36
         1         5        49          638.26          5000.0          635.26
         1         5        50          646.75          5000.0          643.75
         1         5        32          634.71          5000.0          631.71
         1         5        49          638.25          5000.0          635.25
         1         5        50          638.86          5000.0          635.86
         1         6        30          641.94          5000.0          638.94
         1         6        30          642.18          5000.0          639.18
         1         6        32          634.52          5000.0          631.52
         1         6        44          635.24          5000.0          632.24
         1         6        44           644.1          5000.0           641.1
         1         6        49          638.25          5000.0          635.25
         1         6        49          638.25          5000.0          635.25
         1         7        30          638.07          5000.0          635.07
         1         7        32          632.76          5000.0          629.76
         1         7        32          633.71          5000.0          630.71
         1         7        44          635.24          5000.0          632.24
         1         7        49          638.25          5000.0          635.25
         1         7        30          632.58          5000.0          629.58
         1         7        31          630.93          5000.0          627.93
         1         7        32          631.32          5000.0          628.32
         1         7        37          631.66          5000.0          628.66
         1         7        37          631.66          5000.0          628.66
         1         7        38          631.66          5000.0          628.66
         1         7        44          635.24          5000.0          632.24
         1         7        48          638.25          5000.0          635.25
         1         7        49          638.25          5000.0          635.25
         1         8        30          628.46          5000.0          625.46
         1         8        30          628.65          5000.0          625.65
         1         8        31          630.13          5000.0          627.13
         1         8        36          631.66          5000.0          628.66
         1         8        37          631.66          5000.0          628.66
         1         8        37          631.66          5000.0          628.66
         1         8        38          631.66          5000.0          628.66
         1         8        39          631.66          5000.0          628.66
         1         8        39          631.66          5000.0          628.66
         1         8        40          632.46          5000.0          629.46
         1         8        41          631.66          5000.0          628.66
         1         8        42          631.66          5000.0          628.66
         1         8        42          631.66          5000.0          628.66
         1         8        43          631.66          5000.0          628.66
         1         8        44          631.66          5000.0          628.66
         1         8        44          631.66          5000.0          628.66
         1         8        45          638.39          5000.0          635.39
         1         8        45          638.21          5000.0          635.21
         1         8        46          638.21          5000.0          635.21
         1         8        47          638.21          5000.0          635.21
         1         8        47          638.21          5000.0          635.21
         1         8        48          638.25          5000.0          635.25
         1         9        29          627.05          5000.0          624.05
         1         9        30          627.96          5000.0          624.96
         1         9        34          630.91          5000.0          627.91
         1         9        34          630.91          5000.0          627.91
         1         9        35          631.66          5000.0          628.66
         1         9        35          631.66          5000.0          628.66
         1         9        36          631.66          5000.0          628.66
         1         9        38          631.66          5000.0          628.66
         1         9        39          631.66          5000.0          628.66
         1         9        39          631.66          5000.0          628.66
         1         9        40          631.66          5000.0          628.66
         1         9        40          631.66          5000.0          628.66
         1         9        44          634.75          5000.0          631.75
         1         9        45          638.21          5000.0          635.21
         1         9        45          638.21          5000.0          635.21
         1         9        46          638.21          5000.0          635.21
         1         9        29          625.73          5000.0          622.73
         1         9        29          626.71          5000.0          623.71
         1         9        31          626.78          5000.0          623.78
         1         9        32          627.65          5000.0          624.65
         1         9        34          630.68          5000.0          627.68
         1         9        35          631.66          5000.0          628.66
         1         9        35          631.66          5000.0          628.66
         1         9        39          631.66          5000.0          628.66
         1         9        40          631.66          5000.0          628.66
         1        10        29          624.46          5000.0          621.46
         1        10        30          625.56          5000.0          622.56
         1        10        31          626.06          5000.0          623.06
         1        10        32          627.36          5000.0          624.36
         1        10        32          628.28          5000.0          625.28
         1        10        33          629.35          5000.0          626.35
         1        10        34          630.56          5000.0          627.56
         1        10        28          622.29          5000.0          619.29
         1        10        29          624.03          5000.0          621.03
         1        10        29          623.44          5000.0          620.44
         1        10        30           624.1          5000.0           621.1
         1        10        30          625.42          5000.0          622.42
         1        11        24          632.68          5000.0          629.68
         1        11        28          623.09          5000.0          620.09
         1        11        29          623.19          5000.0          620.19
         1        11        30          623.77          5000.0          620.77
         1        12        24           631.4          5000.0           628.4
         1        12        25          622.51          5000.0          619.51
         1        12        26          622.49          5000.0          619.49
         1        12        28          622.23          5000.0          619.23
         1        12        29          622.41          5000.0          619.41
         1        12        29          622.46          5000.0          619.46
         1        12        24          630.99          5000.0          627.99
         1        12        24          629.01          5000.0          626.01
         1        12        25          627.36          5000.0          624.36
         1        12        25          627.64          5000.0          624.64
         1        12        26          619.05          5000.0          616.05
         1        12        27           619.9          5000.0           616.9
         1        12        27          620.96          5000.0          617.96
         1        12        28          621.16          5000.0          618.16
         1        12        29           621.8          5000.0           618.8
         1        13        25           618.2          5000.0           615.2
         1        13        26          619.22          5000.0          616.22
         1        14        25          617.81          5000.0          614.81
         1        14        25          618.18          5000.0          615.18
         1        14        25          617.52          5000.0          614.52
         1        15        24          616.72          5000.0          613.72
         1        15        25          617.58          5000.0          614.58
         1        15        24          616.05          5000.0          613.05
         1        16        19          636.64          5000.0          633.64
         1        16        20          633.28          5000.0          630.28
         1        16        20          627.78          5000.0          624.78
         1        16        21          623.52          5000.0          620.52
         1        16        22          620.08          5000.0          617.08
         1        16        24          615.26          5000.0          612.26
         1        16        24          616.11          5000.0          613.11
         1        17        19           636.5          5000.0           633.5
         1        17        19          634.19          5000.0          631.19
         1        17        20          633.28          5000.0          630.28
         1        17        22          613.58          5000.0          610.58
         1        17        22          613.68          5000.0          610.68
         1        17        23           615.1          5000.0           612.1
         1        17        24          615.23          5000.0          612.23
         1        17        21          613.26          5000.0          610.26
         1        17        22          613.26          5000.0          610.26
         1        18        19          622.45          5000.0          619.45
         1        18        19          618.84          5000.0          615.84
         1        18        20           615.9          5000.0           612.9
         1        18        20          612.83          5000.0          609.83
         1        18        21          613.09          5000.0          610.09
         1        19        20          611.98          5000.0          608.98
         1        19        20          612.67          5000.0          609.67
         1        19        20           612.3          5000.0           609.3
         1        20        19          610.82          5000.0          607.82
         1        20        20          611.54          5000.0          608.54
         1        20        19          610.38          5000.0          607.38
         1        20        19          611.33          5000.0          608.33
         1        21        19          610.34          5000.0          607.34
         1        22        19          610.35          5000.0          607.35
         1        22        19          609.66          5000.0          606.66
         1        22        60          588.66          5000.0          585.66
         1        22        60          588.66          5000.0          585.66
         1        23        19          608.67          5000.0          605.67
         1        23        59          588.66          5000.0          585.66
         1        23        59          588.66          5000.0          585.66
         1        23        60          588.66          5000.0          585.66
         1        24        18          608.34          5000.0          605.34
         1        24        19           608.1          5000.0           605.1
         1        24        57          588.66          5000.0          585.66
         1        24        58          588.66          5000.0          585.66
         1        24        59          588.66          5000.0          585.66
         1        24        60          578.82          5000.0          575.82
         1        24        60          578.82          5000.0          575.82
         1        24        19          607.65          5000.0          604.65
         1        24        56          588.66          5000.0          585.66
         1        24        57          588.66          5000.0          585.66
         1        24        57          588.66          5000.0          585.66
         1        24        59          578.82          5000.0          575.82
         1        24        59          578.82          5000.0          575.82
         1        24        60          578.82          5000.0          575.82
         1        24        60          576.22          5000.0          573.22
         1        25        19          607.38          5000.0          604.38
         1        25        55          588.66          5000.0          585.66
         1        25        56          588.66          5000.0          585.66
         1        25        57          578.82          5000.0          575.82
         1        25        58          578.82          5000.0          575.82
         1        25        59          578.82          5000.0          575.82
         1        25        59          576.22          5000.0          573.22
         1        25        60          576.22          5000.0          573.22
         1        25        60          577.81          5000.0          574.81
         1        25        19          607.72          5000.0          604.72
         1        25        19          607.04          5000.0          604.04
         1        25        55          588.66          5000.0          585.66
         1        25        55          588.66          5000.0          585.66
         1        25        56          578.82          5000.0          575.82
         1        25        57          578.82          5000.0          575.82
         1        25        57          578.82          5000.0          575.82
         1        25        58          576.22          5000.0          573.22
         1        25        59          576.22          5000.0          573.22
         1        25        59          576.22          5000.0          573.22
         1        26        19          611.75          5000.0          608.75
         1        26        19          606.69          5000.0          603.69
         1        26        54          588.66          5000.0          585.66
         1        26        55          588.66          5000.0          585.66
         1        26        55          578.82          5000.0          575.82
         1        26        56          578.82          5000.0          575.82
         1        26        57          576.22          5000.0          573.22
         1        26        57          576.22          5000.0          573.22
         1        26        58          576.22          5000.0          573.22
         1        27        19          606.85          5000.0          603.85
         1        27        54          585.05          5000.0          582.05
         1        27        54          588.66          5000.0          585.66
         1        27        55          578.82          5000.0          575.82
         1        27        55          578.82          5000.0          575.82
         1        27        56          576.22          5000.0          573.22
         1        27        57          576.22          5000.0          573.22
         1        27        19          608.22          5000.0          605.22
         1        27        53          585.05          5000.0          582.05
         1        27        54          585.05          5000.0          582.05
         1        27        54          578.82          5000.0          575.82
         1        27        55          578.82          5000.0          575.82
         1        27        55          576.22          5000.0          573.22
         1        27        56          576.22          5000.0          573.22
         1        28        19          606.32          5000.0          603.32
         1        28        52          585.05          5000.0          582.05
         1        28        53          585.05          5000.0          582.05
         1        28        54          578.82          5000.0          575.82
         1        28        54          578.82          5000.0          575.82
         1        28        55          576.22          5000.0          573.22
         1        28        55          576.22          5000.0          573.22
         1        28        56          584.78          5000.0          581.78
         1        29        19          606.62          5000.0          603.62
         1        29        19          606.34          5000.0          603.34
         1        29        52          585.05          5000.0          582.05
         1        29        52          585.05          5000.0          582.05
         1        29        54          578.82          5000.0          575.82
         1        29        55          576.22          5000.0          573.22
         1        29        19          605.31          5000.0          602.31
         1        29        52          585.05          5000.0          582.05
         1        29        53          578.82          5000.0          575.82
         1        29        54          578.82          5000.0          575.82
         1        29        54          576.22          5000.0          573.22
         1        29        55          576.22          5000.0          573.22
         1        30        19          604.18          5000.0          601.18
         1        30        51          585.05          5000.0          582.05
         1        30        52          585.05          5000.0          582.05
         1        30        53          578.82          5000.0          575.82
         1        30        54          576.22          5000.0          573.22
         1        30        54          576.22          5000.0          573.22
         1        30        19          603.75          5000.0          600.75
         1        30        51          585.05          5000.0          582.05
         1        30        53          576.22          5000.0          573.22
         1        30        54          576.22          5000.0          573.22
         1        31        19          603.44          5000.0          600.44
         1        31        51          585.05          5000.0          582.05
         1        31        52          578.82          5000.0          575.82
         1        31        53          576.22          5000.0          573.22
         1        32        19          603.11          5000.0          600.11
         1        32        50          585.05          5000.0          582.05
         1        32        51          585.05          5000.0          582.05
         1        32        52          578.82          5000.0          575.82
         1        32        53          576.22          5000.0          573.22
         1        32        19          602.85          5000.0          599.85
         1        32        50          584.94          5000.0          581.94
         1        32        50          585.05          5000.0          582.05
         1        32        52          578.82          5000.0          575.82
         1        32        53          576.22          5000.0          573.22
         1        33        19          602.53          5000.0          599.53
         1        33        50          584.72          5000.0          581.72
         1        33        52          578.82          5000.0          575.82
         1        33        53          576.22          5000.0          573.22
         1        34        16          606.92          5000.0          603.92
         1        34        17          607.23          5000.0          604.23
         1        34        19          602.14          5000.0          599.14
         1        34        19          602.43          5000.0          599.43
         1        34        49          585.51          5000.0          582.51
         1        34        50          585.88          5000.0          582.88
         1        34        52          578.82          5000.0          575.82
         1        34        53          576.22          5000.0          573.22
         1        34        16          605.76          5000.0          602.76
         1        34        19          601.97          5000.0          598.97
         1        34        49          585.41          5000.0          582.41
         1        34        52          578.82          5000.0          575.82
         1        34        53          576.22          5000.0          573.22
         1        35        16          605.77          5000.0          602.77
         1        35        17          601.83          5000.0          598.83
         1        35        18          602.22          5000.0          599.22
         1        35        19          602.15          5000.0          599.15
         1        35        49          582.49          5000.0          579.49
         1        35        52          578.82          5000.0          575.82
         1        35        53          576.22          5000.0          573.22
         1        35        17          601.43          5000.0          598.43
         1        35        17          601.56          5000.0          598.56
         1        35        49          579.79          5000.0          576.79
         1        35        50          578.82          5000.0          575.82
         1        35        52          578.82          5000.0          575.82
         1        35        53          576.22          5000.0          573.22
         1        36        15          603.52          5000.0          600.52
         1        36        17          600.72          5000.0          597.72
         1        36        50          578.82          5000.0          575.82
         1        36        52          578.82          5000.0          575.82
         1        36        53          576.22          5000.0          573.22
         1        37        15          603.62          5000.0          600.62
         1        37        15          603.52          5000.0          600.52
         1        37        16          600.15          5000.0          597.15
         1        37        17          600.15          5000.0          597.15
         1        37        50          578.82          5000.0          575.82
         1        37        52          578.82          5000.0          575.82
         1        37        53          576.22          5000.0          573.22
         1        37        15          603.52          5000.0          600.52
         1        37        16          600.46          5000.0          597.46
         1        37        50          578.55          5000.0          575.55
         1        37        52          578.82          5000.0          575.82
         1        37        53          576.22          5000.0          573.22
         1        38        15           603.1          5000.0           600.1
         1        38        15          600.98          5000.0          597.98
         1        38        16          599.85          5000.0          596.85
         1        38        50          578.79          5000.0          575.79
         1        38        52          578.51          5000.0          575.51
         1        38        53          576.22          5000.0          573.22
         1        39        14          602.44          5000.0          599.44
         1        39        15          603.24          5000.0          600.24
         1        39        15          598.93          5000.0          595.93
         1        39        50           578.4          5000.0           575.4
         1        39        50          579.61          5000.0          576.61
         1        39        52          576.22          5000.0          573.22
         1        39        53          576.22          5000.0          573.22
         1        39        15          602.37          5000.0          599.37
         1        39        15          598.44          5000.0          595.44
         1        39        16          598.44          5000.0          595.44
         1        39        50          574.82          5000.0          571.82
         1        39        52          576.22          5000.0          573.22
         1        39        53          578.71          5000.0          575.71
         1        40        15          602.37          5000.0          599.37
         1        40        16          598.44          5000.0          595.44
         1        40        50          569.71          5000.0          566.71
         1        40        52          573.88          5000.0          570.88
         1        40        53           578.3          5000.0           575.3
         1        40        15          596.76          5000.0          593.76
         1        40        15          598.44          5000.0          595.44
         1        40        16          598.44          5000.0          595.44
         1        40        50          568.63          5000.0          565.63
         1        40        52          573.88          5000.0          570.88
         1        40        52          573.88          5000.0          570.88
         1        40        53          578.28          5000.0          575.28
         1        41        14          606.05          5000.0          603.05
         1        41        14          596.68          5000.0          593.68
         1        41        15          596.63          5000.0          593.63
         1        41        50          568.63          5000.0          565.63
         1        41        52          573.88          5000.0          570.88
         1        41        52          576.15          5000.0          573.15
         1        41        53          578.28          5000.0          575.28
         1        42        14          602.46          5000.0          599.46
         1        42        14          596.63          5000.0          593.63
         1        42        15          596.63          5000.0          593.63
         1        42        15          596.63          5000.0          593.63
         1        42        50          568.63          5000.0          565.63
         1        42        52          573.88          5000.0          570.88
         1        42        52          576.15          5000.0          573.15
         1        42        53          579.12          5000.0          576.12
         1        42        14          596.25          5000.0          593.25
         1        42        15          596.45          5000.0          593.45
         1        42        50          568.63          5000.0          565.63
         1        42        52          573.88          5000.0          570.88
         1        42        52          576.15          5000.0          573.15
         1        43        14          593.22          5000.0          590.22
         1        43        14           593.3          5000.0           590.3
         1        43        15          593.55          5000.0          590.55