# RIV package for  MODFLOW-2005, generated by Flopy.
     10660         0
     10660         0 # stress period 1
         1         1       194          602.34          5000.0          599.34
         1         1       194          600.88          5000.0          597.88
         1         1       195          599.72          5000.0          596.72
         1         1       195          604.26          5000.0          601.26
         1         1       248           446.6          5000.0           443.6
         1         1       249           445.8          5000.0           442.8
         1         1       249          446.83          5000.0          443.83
         1         1       259           445.8          5000.0           442.8
         1         1       259           445.8          5000.0           442.8
         1         1       260          453.45          5000.0          450.45
         1         1       269          461.44          5000.0          458.44
         1         1       270          453.97          5000.0          450.97
         1         1       271          455.12          5000.0          452.12
         1         1       272          455.03          5000.0          452.03
         1         1       272          455.03          5000.0          452.03
         1         1       273          463.73          5000.0          460.73
         1         1       285          504.81          5000.0          501.81
         1         1       286          506.57          5000.0          503.57
         1         1       287           507.2          5000.0           504.2
         1         1       287          510.13          5000.0          507.13
         1         1       288          510.41          5000.0          507.41
         1         1       289          512.44          5000.0          509.44
         1         1       289          520.31          5000.0          517.31
         1         1       324          745.61          5000.0          742.61
         1         1       359          648.34          5000.0          645.34
         1         1       360          648.34          5000.0          645.34
         1         1       360          648.34          5000.0          645.34
         1         1       361          648.34          5000.0          645.34
         1         1       362           648.3          5000.0           645.3
         1         1       362           648.3          5000.0           645.3
         1         1       369          669.01          5000.0          666.01
         1         1       372          627.72          5000.0          624.72
         1         1       372          627.91          5000.0          624.91
         1         1       375           628.4          5000.0           625.4
         1         1       375           628.4          5000.0           625.4
         1         2       194          594.97          5000.0          591.97
         1         2       195          598.02          5000.0          595.02
         1         2       249           445.8          5000.0           442.8
         1         2       259           445.8          5000.0           442.8
         1         2       269          463.17          5000.0          460.17
         1         2       273          467.77          5000.0          464.77
         1         2       289          514.38          5000.0          511.38
         1         2       289          521.89          5000.0          518.89
         1         2       290          529.76          5000.0          526.76
         1         2       324          744.68          5000.0          741.68
         1         2       324          745.48          5000.0          742.48
         1         2       362          647.99          5000.0          644.99
         1         2       369          659.41          5000.0          656.41
         1         2       370          627.72          5000.0          624.72
         1         2       371          627.77          5000.0          624.77
         1         2       372          628.67          5000.0          625.67
         1         2       372          627.72          5000.0          624.72
         1         2       374           628.4          5000.0           625.4
         1         2       375           628.4          5000.0           625.4
         1         2       375           628.4          5000.0           625.4
         1         2       376           628.4          5000.0           625.4
         1         2       194          590.25          5000.0          587.25
         1         2       194          594.88          5000.0          591.88
         1         2       249           445.8          5000.0           442.8
         1         2       259           445.8          5000.0           442.8
         1         2       269          474.54          5000.0          471.54
         1         2       289          521.11          5000.0          518.11
         1         2       290          523.55          5000.0          520.55
         1         2       290          529.24          5000.0          526.24
         1         2       324          741.72          5000.0          738.72
         1         2       362          647.97          5000.0          644.97
         1         2       363          647.61          5000.0          644.61
         1         2       369          644.05          5000.0          641.05
         1         2       369          640.87          5000.0          637.87
         1         2       370          627.77          5000.0          624.77
         1         2       370          628.25          5000.0          625.25
         1         2       372          627.72          5000.0          624.72
         1         2       374          628.37          5000.0          625.37
         1         2       375           628.4          5000.0           625.4
         1         2       375           628.4          5000.0           625.4
         1         2       376           628.4          5000.0           625.4
         1         2       377          628.79          5000.0          625.79
         1         2       377          628.79          5000.0          625.79
         1         2       378          628.79          5000.0          625.79
         1         2       386          714.24          5000.0          711.24
         1         3       194          586.38          5000.0          583.38
         1         3       249           445.8          5000.0           442.8
         1         3       259           445.8          5000.0           442.8
         1         3       269          475.23          5000.0          472.23
         1         3       270          481.06          5000.0          478.06
         1         3       290          553.44          5000.0          550.44
         1         3       324           739.9          5000.0           736.9
         1         3       362          647.63          5000.0          644.63
         1         3       363          647.58          5000.0          644.58
         1         3       369          632.83          5000.0          629.83
         1         3       370          627.13          5000.0          624.13
         1         3       370          627.13          5000.0          624.13
         1         3       372          627.72          5000.0          624.72
         1         3       374          628.21          5000.0          625.21
         1         3       374          628.21          5000.0          625.21
         1         3       378          628.79          5000.0          625.79
         1         3       388          638.58          5000.0          635.58
         1         3       389          638.58          5000.0          635.58
         1         4       194          584.34          5000.0          581.34
         1         4       249           445.8          5000.0           442.8
         1         4       257           445.8          5000.0           442.8
         1         4       259           445.8          5000.0           442.8
         1         4       324           738.9          5000.0           735.9
         1         4       325           738.9          5000.0           735.9
         1         4       361          641.29          5000.0          638.29
         1         4       362          638.55          5000.0          635.55
         1         4       362          645.89          5000.0          642.89
         1         4       364           665.6          5000.0           662.6
         1         4       370          626.67          5000.0          623.67
         1         4       370           626.2          5000.0           623.2
         1         4       371          627.27          5000.0          624.27
         1         4       372          627.72          5000.0          624.72
         1         4       374          628.17          5000.0          625.17
         1         4       378          628.79          5000.0          625.79
         1         4       379          628.79          5000.0          625.79
         1         4       379          628.79          5000.0          625.79
         1         4       388          638.58          5000.0          635.58
         1         4       389          638.93          5000.0          635.93
         1         4       389          638.58          5000.0          635.58
         1         4       194          577.91          5000.0          574.91
         1         4       249          449.62          5000.0          446.62
         1         4       250           445.8          5000.0           442.8
         1         4       256           445.8          5000.0           442.8
         1         4       257           445.8          5000.0           442.8
         1         4       257           445.8          5000.0           442.8
         1         4       258           446.6          5000.0           443.6
         1         4       259           445.8          5000.0           442.8
         1         4       259           445.8          5000.0           442.8
         1         4       324          741.78          5000.0          738.78
         1         4       325          737.86          5000.0          734.86
         1         4       325          737.86          5000.0          734.86
         1         4       360          637.33          5000.0          634.33
         1         4       361          638.08          5000.0          635.08
         1         4       364          645.48          5000.0          642.48
         1         4       371          623.66          5000.0          620.66
         1         4       373          627.72          5000.0          624.72
         1         4       374          628.17          5000.0          625.17
         1         4       379          628.79          5000.0          625.79
         1         4       380          628.79          5000.0          625.79
         1         4       387          638.58          5000.0          635.58
         1         4       389          638.58          5000.0          635.58
         1         4       390          638.58          5000.0          635.58
         1         4       390          638.58          5000.0          635.58
         1         5       193          575.61          5000.0          572.61
         1         5       194          576.74          5000.0          573.74
         1         5       249          457.42          5000.0          454.42
         1         5       249          456.12          5000.0          453.12
         1         5       250           445.8          5000.0           442.8
         1         5       250           445.8          5000.0           442.8
         1         5       251           445.8          5000.0           442.8
         1         5       252           445.8          5000.0           442.8
         1         5       252           445.8          5000.0           442.8
         1         5       253          447.26          5000.0          444.26
         1         5       254           445.8          5000.0           442.8
         1         5       254           445.8          5000.0           442.8
         1         5       255           445.8          5000.0           442.8
         1         5       255           445.8          5000.0           442.8
         1         5       256           445.8          5000.0           442.8
         1         5       258           445.8          5000.0           442.8
         1         5       259           445.8          5000.0           442.8
         1         5       259           445.8          5000.0           442.8
         1         5       260           445.8          5000.0           442.8
         1         5       324          747.21          5000.0          744.21
         1         5       324          744.16          5000.0          741.16
         1         5       325          738.38          5000.0          735.38
         1         5       325          737.86          5000.0          734.86
         1         5       360          636.77          5000.0          633.77
         1         5       363          634.49          5000.0          631.49
         1         5       364          631.99          5000.0          628.99
         1         5       370          619.03          5000.0          616.03
         1         5       371          620.34          5000.0          617.34
         1         5       380          628.79          5000.0          625.79
         1         5       380          628.79          5000.0          625.79
         1         5       385          638.58          5000.0          635.58
         1         5       386          638.58          5000.0          635.58
         1         5       387          638.58          5000.0          635.58
         1         5       387          638.58          5000.0          635.58
         1         5       390          638.58          5000.0          635.58
         1         5       192          573.06          5000.0          570.06
         1         5       193          575.61          5000.0          572.61
         1         5       253           445.8          5000.0           442.8
         1         5       254          449.12          5000.0          446.12
         1         5       260           445.8          5000.0           442.8
         1         5       324          748.76          5000.0          745.76
         1         5       324          748.61          5000.0          745.61
         1         5       325          737.06          5000.0          734.06
         1         5       360          636.51          5000.0          633.51
         1         5       361          637.01          5000.0          634.01
         1         5       362           636.8          5000.0           633.8
         1         5       362          632.91          5000.0          629.91
         1         5       363          634.33          5000.0          631.33
         1         5       364          630.88          5000.0          627.88
         1         5       364          628.46          5000.0          625.46
         1         5       370          619.03          5000.0          616.03
         1         5       370          619.03          5000.0          616.03
         1         5       380          628.79          5000.0          625.79
         1         5       381          628.79          5000.0          625.79
         1         5       382          628.79          5000.0          625.79
         1         5       382          628.79          5000.0          625.79
         1         5       383          628.79          5000.0          625.79
         1         5       385          638.58          5000.0          635.58
         1         6       192          570.38          5000.0          567.38
         1         6       260           445.8          5000.0           442.8
         1         6       324          755.73          5000.0          752.73
         1         6       325          729.39          5000.0          726.39
         1         6       326          728.64          5000.0          725.64
         1         6       327          731.68          5000.0          728.68
         1         6       362          634.96          5000.0          631.96
         1         6       362          633.18          5000.0          630.18
         1         6       364          627.78          5000.0          624.78
         1         6       365          627.32          5000.0          624.32
         1         6       366          632.29          5000.0          629.29
         1         6       367           643.1          5000.0           640.1
         1         6       369          619.03          5000.0          616.03
         1         6       369          619.03          5000.0          616.03
         1         6       370          619.03          5000.0          616.03
         1         6       382          628.79          5000.0          625.79
         1         6       382          628.79          5000.0          625.79
         1         6       383          628.79          5000.0          625.79
         1         6       384          628.79          5000.0          625.79
         1         6       385          638.58          5000.0          635.58
         1         7       192          568.35          5000.0          565.35
         1         7       260           445.8          5000.0           442.8
         1         7       324          758.96          5000.0          755.96
         1         7       326          727.86          5000.0          724.86
         1         7       327          730.04          5000.0          727.04
         1         7       362          636.16          5000.0          633.16
         1         7       365          626.73          5000.0          623.73
         1         7       365           626.1          5000.0           623.1
         1         7       366          625.49          5000.0          622.49
         1         7       368          619.03          5000.0          616.03
         1         7       369          619.03          5000.0          616.03
         1         7       382          633.08          5000.0          630.08
         1         7       384          628.79          5000.0          625.79
         1         7       385          638.58          5000.0          635.58
         1         7       386          638.58          5000.0          635.58
         1         7       192          566.65          5000.0          563.65
         1         7       259           445.8          5000.0           442.8
         1         7       260           445.8          5000.0           442.8
         1         7       325          742.61          5000.0          739.61
         1         7       325          733.34          5000.0          730.34
         1         7       326          726.74          5000.0          723.74
         1         7       327          724.97          5000.0          721.97
         1         7       361          638.55          5000.0          635.55
         1         7       362          638.62          5000.0          635.62
         1         7       366          624.71          5000.0          621.71
         1         7       368          619.03          5000.0          616.03
         1         7       369          619.03          5000.0          616.03
         1         7       382          639.26          5000.0          636.26
         1         7       382          628.79          5000.0          625.79
         1         7       383          628.79          5000.0          625.79
         1         7       384          628.79          5000.0          625.79
         1         7       386          638.58          5000.0          635.58
         1         7       389          638.58          5000.0          635.58
         1         7       389          638.58          5000.0          635.58
         1         8       191          576.55          5000.0          573.55
         1         8       192          564.72          5000.0          561.72
         1         8       259           445.8          5000.0           442.8
         1         8       324          755.74          5000.0          752.74
         1         8       324           750.0          5000.0           747.0
         1         8       325          741.67          5000.0          738.67
         1         8       327          720.89          5000.0          717.89
         1         8       361          641.51          5000.0          638.51
         1         8       366          623.95          5000.0          620.95
         1         8       367          619.03          5000.0          616.03
         1         8       368          619.03          5000.0          616.03
         1         8       369          619.03          5000.0          616.03
         1         8       381          651.01          5000.0          648.01
         1         8       382          646.06          5000.0          643.06
         1         8       382          628.79          5000.0          625.79
         1         8       383          632.41          5000.0          629.41
         1         8       386          638.58          5000.0          635.58
         1         8       388          638.58          5000.0          635.58
         1         8       389          638.58          5000.0          635.58
         1         8       389          638.58          5000.0          635.58
         1         8       390          643.03          5000.0          640.03
         1         9       191          574.15          5000.0          571.15
         1         9       192          563.53          5000.0          560.53
         1         9       192          565.66          5000.0          562.66
         1         9       225          537.93          5000.0          534.93
         1         9       259           445.8          5000.0           442.8
         1         9       259           445.8          5000.0           442.8
         1         9       327          720.19          5000.0          717.19
         1         9       366          622.64          5000.0          619.64
         1         9       367          619.03          5000.0          616.03
         1         9       367          619.03          5000.0          616.03
         1         9       368          619.03          5000.0          616.03
         1         9       369          619.03          5000.0          616.03
         1         9       369          622.75          5000.0          619.75
         1         9       370          623.34          5000.0          620.34
         1         9       370          636.35          5000.0          633.35
         1         9       381          662.42          5000.0          659.42
         1         9       383          634.48          5000.0          631.48
         1         9       386          638.58          5000.0          635.58
         1         9       387          638.58          5000.0          635.58
         1         9       388          638.58          5000.0          635.58
         1         9       390           645.6          5000.0           642.6
         1         9       390          647.22          5000.0          644.22
         1         9       192          562.13          5000.0          559.13
         1         9       224          537.24          5000.0          534.24
         1         9       225          535.09          5000.0          532.09
         1         9       259           445.8          5000.0           442.8
         1         9       326          732.49          5000.0          729.49
         1         9       327          725.74          5000.0          722.74
         1         9       327          718.54          5000.0          715.54
         1         9       365           621.7          5000.0           618.7
         1         9       366          621.68          5000.0          618.68
         1         9       367          619.03          5000.0          616.03
         1         9       368          619.03          5000.0          616.03
         1         9       369          619.03          5000.0          616.03
         1         9       369          619.03          5000.0          616.03
         1         9       381          671.99          5000.0          668.99
         1         9       383          634.37          5000.0          631.37
         1         9       386          638.05          5000.0          635.05
         1         9       387          638.21          5000.0          635.21
         1         9       387          638.58          5000.0          635.58
         1         9       388          638.58          5000.0          635.58
         1         9       390          659.43          5000.0          656.43
         1        10       192          561.73          5000.0          558.73
         1        10       224          537.54          5000.0          534.54
         1        10       224           533.4          5000.0           530.4
         1        10       225           532.3          5000.0           529.3
         1        10       258           445.8          5000.0           442.8
         1        10       259           445.8          5000.0           442.8
         1        10       327          718.54          5000.0          715.54
         1        10       364          619.38          5000.0          616.38
         1        10       365          620.33          5000.0          617.33
         1        10       365          621.27          5000.0          618.27
         1        10       366          619.03          5000.0          616.03
         1        10       367          619.03          5000.0          616.03
         1        10       381          684.96          5000.0          681.96
         1        10       383          635.75          5000.0          632.75
         1        10       384           637.3          5000.0           634.3
         1        10       385          638.02          5000.0          635.02
         1        10       385          638.26          5000.0          635.26
         1        10       386          638.02          5000.0          635.02
         1        10       387          638.21          5000.0          635.21
         1        10       387          638.26          5000.0          635.26
         1        10       388          638.25          5000.0          635.25
         1        10       192          559.69          5000.0          556.69
         1        10       192          558.07          5000.0          555.07
         1        10       225          530.01          5000.0          527.01
         1        10       258           445.8          5000.0           442.8
         1        10       327          718.54          5000.0          715.54
         1        10       364          619.03          5000.0          616.03
         1        10       364          619.03          5000.0          616.03
         1        10       366          619.03          5000.0          616.03
         1        10       367          619.62          5000.0          616.62
         1        10       367          622.62          5000.0          619.62
         1        10       381          698.47          5000.0          695.47
         1        10       384          637.45          5000.0          634.45
         1        10       384          638.02          5000.0          635.02
         1        10       385          638.02          5000.0          635.02
         1        10       386          638.02          5000.0          635.02
         1        10       387          645.38          5000.0          642.38
         1        10       388          642.61          5000.0          639.61
         1        10       389           644.0          5000.0           641.0
         1        10       389          646.27          5000.0          643.27
         1        11       192          558.92          5000.0          555.92
         1        11       193          558.04          5000.0          555.04
         1        11       195          569.36          5000.0          566.36
         1        11       225          529.83          5000.0          526.83
         1        11       257           445.8          5000.0           442.8
         1        11       258           445.8          5000.0           442.8
         1        11       327          718.54          5000.0          715.54
         1        11       328          718.54          5000.0          715.54
         1        11       329          718.54          5000.0          715.54
         1        11       364          619.03          5000.0          616.03
         1        11       364          619.03          5000.0          616.03
         1        11       366          619.03          5000.0          616.03
         1        11       367           619.5          5000.0           616.5
         1        11       367          626.37          5000.0          623.37
         1        11       368          628.08          5000.0          625.08
         1        12       193          555.13          5000.0          552.13
         1        12       194          556.71          5000.0          553.71
         1        12       195          562.84          5000.0          559.84
         1        12       225          527.24          5000.0          524.24
         1        12       225          526.78          5000.0          523.78