# LPF package for  MODFLOW-2005, generated by Flopy.
         1    -1E+30         0  
         1
         0
   1.000000E+00
         0
         0
INTERNAL               1 (390E15.6) -1 #hk layer 1                    
   5.000000E+02   5.000000E+02   5.000000E+02   5.000000E+02   5.000000E+02   5.000000E+02   5.000000E+02   5.000000E+02   5.000000E+02   5.000000E+02   5.000000E+02   5.000000E+02   5.000000E+02   5.000000E+02   5.000000E+02   5.000000E+02   5.000000E+02   5.000000E+02   5.000000E+02   5.000000E+02   5.000000E+02   5.000000E+02   5.000000E+02   5.000000E+02   5.000000E+02   5.000000E+02   5.000000E+02   5.000000E+02   5.000000E+02   5.000000E+02   5.000000E+02   5.000000E+02   5.000000E+02   5.000000E+02   5.000000E+02   5.000000E+02   5.000000E+02   5.000000E+02   5.000000E+02   5.000000E+02   5.000000E+02   5.000000E+02   5.000000E+02   5.000000E+02   5.000000E+02   5.000000E+02   5.000000E+02   5.000000E+02   5.000000E+02   5.000000E+02   5.000000E+02   5.000000E+02   5.000000E+02   5.000000E+02   5.000000E+02   5.000000E+02   5.000000E+02   5.000000E+02   5.000000E+02   5.000000E+02   5.000000E+02   5.000000E+02   5.000000E+02   5.000000E+02   5.000000E+02   5.000000E+02   5.000000E+02   5.000000E+02   5.000000E+02   5.000000E+02   5.000000E+02   5.000000E+02   5.000000E+02   5.000000E+02   5.000000E+02   5.000000E+02   5.000000E+02   5.000000E+02   5.000000E+02   5.000000E+02   5.000000E+02   5.000000E+02   5.000000E+02   5.000000E+02   5.000000E+02   5.000000E+02   5.000000E+02   5.000000E+02   5.000000E+02   5.000000E+02   5.000000E+02   5.000000E+02   5.000000E+02   5.000000E+02   5.000000E+02   5.000000E+02   5.000000E+02   5.000000E+02   5.000000E+02   5.000000E+02   5.000000E+02   5.000000E+02   5.000000E+02   5.000000E+02   5.000000E+02   5.000000E+02   5.000000E+02   5.000000E+02   5.000000E+02   5.000000E+02   5.000000E+02   5.000000E+02   5.000000E+02   5.000000E+02   5.000000E+02   5.000000E+02   5.000000E+02   5.000000E+02   5.000000E+02   5.000000E+02   5.000000E+02   5.000000E+02   5.000000E+02   5.000000E+02   5.000000E+02   5.000000E+02   5.000000E+02   5.000000E+02   5.000000E+02   5.000000E+02   5.000000E+02   5.000000E+02   5.000000E+02   5.000000E+02   5.000000E+02   5.000000E+02   5.000000E+02   5.000000E+02   5.000000E+02   5.000000E+02   5.000000E+02   5.000000E+02   5.000000E+02   5.000000E+02   5.000000E+02   5.000000E+02   5.000000E+02   5.000000E+02   5.000000E+02   5.000000E+02   5.000000E+02   5.000000E+02   5.000000E+02   5.000000E+02   5.000000E+02   5.000000E+02   5.000000E+02   5.000000E+02   5.000000E+02   5.000000E+02   5.000000E+02   5.000000E+02   5.000000E+02   5.000000E+02   5.000000E+02   5.000000E+02   5.000000E+02   5.000000E+02   5.000000E+02   5.000000E+02   5.000000E+02   5.000000E+02   5.000000E+02   5.000000E+02   5.000000E+02   5.000000E+02   5.000000E+02   5.000000E+02   5.000000E+02   5.000000E+02   5.000000E+02   5.000000E+02   5.000000E+02   5.000000E+02   5.000000E+02   5.000000E+02   5.000000E+02   5.000000E+02   5.000000E+02   5.000000E+02   5.000000E+02   5.000000E+02   5.000000E+02   5.000000E+02   5.000000E+02   5.000000E+02   5.000000E+02   5.000000E+02   5.000000E+02   5.000000E+02   5.000000E+02   5.000000E+02   5.000000E+02   5.000000E+02   5.000000E+02   5.000000E+02   5.000000E+02   5.000000E+02   5.000000E+02   5.000000E+02   5.000000E+02   5.000000E+02   5.000000E+02   5.000000E+02   5.000000E+02   5.000000E+02   5.000000E+02   5.000000E+02   5.000000E+02   5.000000E+02   5.000000E+02   5.000000E+02   5.000000E+02   5.000000E+02   5.000000E+02   5.000000E+02   5.000000E+02   5.000000E+02   5.000000E+02   5.000000E+02   5.000000E+02   5.000000E+02   5.000000E+02   5.000000E+02   5.000000E+02   5.000000E+02   5.000000E+02   5.000000E+02   5.000000E+02   5.000000E+02   5.000000E+02   5.000000E+02   5.000000E+02   5.000000E+02   5.000000E+02   5.000000E+02   5.000000E+02   5.000000E+02   5.000000E+02   5.000000E+02   5.000000E+02   5.000000E+02   5.000000E+02   5.000000E+02   5.000000E+02   5.000000E+02   5.000000E+02   5.000000E+02   5.000000E+02   5.000000E+02   5.000000E+02   5.000000E+02   5.000000E+02   5.000000E+02   5.000000E+02   5.000000E+02   5.000000E+02   5.000000E+02   5.000000E+02   5.000000E+02   5.000000E+02   5.000000E+02   5.000000E+02   5.000000E+02   5.000000E+02   5.000000E+02   5.000000E+02   5.000000E+02   5.000000E+02   5.000000E+02   5.000000E+02   5.000000E+02   5.000000E+02   5.000000E+02   5.000000E+02   5.000000E+02   5.000000E+02   5.000000E+02   5.000000E+02   5.000000E+02   5.000000E+02   5.000000E+02   5.000000E+02   5.000000E+02   5.000000E+02   5.000000E+02   5.000000E+02   5.000000E+02   5.000000E+02   5.000000E+02   5.000000E+02   5.000000E+02   5.000000E+02   5.000000E+02   5.000000E+02   5.000000E+02   5.000000E+02   5.000000E+02   5.000000E+02   5.000000E+02   5.000000E+02   5.000000E+02   5.000000E+02   5.000000E+02   5.000000E+02   5.000000E+02   5.000000E+02   5.000000E+02   5.000000E+02   5.000000E+02   5.000000E+02   5.000000E+02   5.000000E+02   5.000000E+02   5.000000E+02   5.000000E+02   5.000000E+02   5.000000E+02   5.000000E+02   5.000000E+02   5.000000E+02   5.000000E+02   5.000000E+02   5.000000E+02   5.000000E+02   5.000000E+02   5.000000E+02   5.000000E+02   5.000000E+02   5.000000E+02   5.000000E+02   5.000000E+02   5.000000E+02   5.000000E+02   5.000000E+02   5.000000E+02   5.000000E+02   5.000000E+02   5.000000E+02   5.000000E+02   5.000000E+02   5.000000E+02   5.000000E+02   5.000000E+02   5.000000E+02   5.000000E+02   5.000000E+02   5.000000E+02   5.000000E+02   5.000000E+02   5.000000E+02   5.000000E+02   5.000000E+02   5.000000E+02   5.000000E+02   5.000000E+02   5.000000E+02   5.000000E+02   5.000000E+02   5.000000E+02   5.000000E+02   5.000000E+02   5.000000E+02   5.000000E+02   5.000000E+02   5.000000E+02   5.000000E+02   5.000000E+02   5.000000E+02   5.000000E+02   5.000000E+02   5.000000E+02   5.000000E+02   5.000000E+02   5.000000E+02   5.000000E+02   5.000000E+02   5.000000E+02   5.000000E+02   5.000000E+02
   5.000000E+02   5.000000E+02   5.000000E+02   5.000000E+02   5.000000E+02   5.000000E+02   5.000000E+02   5.000000E+02   5.000000E+02   5.000000E+02   5.000000E+02   5.000000E+02   5.000000E+02   5.000000E+02   5.000000E+02   5.000000E+02   5.000000E+02   5.000000E+02   5.000000E+02   5.000000E+02   5.000000E+02   5.000000E+02   5.000000E+02   5.000000E+02   5.000000E+02   5.000000E+02   5.000000E+02   5.000000E+02   5.000000E+02   5.000000E+02   5.000000E+02   5.000000E+02   5.000000E+02   5.000000E+02   5.000000E+02   5.000000E+02   5.000000E+02   5.000000E+02   5.000000E+02   5.000000E+02   5.000000E+02   5.000000E+02   5.000000E+02   5.000000E+02   5.000000E+02   5.000000E+02   5.000000E+02   5.000000E+02   5.000000E+02   5.000000E+02   5.000000E+02   5.000000E+02   5.000000E+02   5.000000E+02   5.000000E+02   5.000000E+02   5.000000E+02   5.000000E+02   5.000000E+02   5.000000E+02   5.000000E+02   5.000000E+02   5.000000E+02   5.000000E+02   5.000000E+02   5.000000E+02   5.000000E+02   5.000000E+02   5.000000E+02   5.000000E+02   5.000000E+02   5.000000E+02   5.000000E+02   5.000000E+02   5.000000E+02   5.000000E+02   5.000000E+02   5.000000E+02   5.000000E+02   5.000000E+02   5.000000E+02   5.000000E+02   5.000000E+02   5.000000E+02   5.000000E+02   5.000000E+02   5.000000E+02   5.000000E+02   5.000000E+02   5.000000E+02   5.000000E+02   5.000000E+02   5.000000E+02   5.000000E+02   5.000000E+02   5.000000E+02   5.000000E+02   5.000000E+02   5.000000E+02   5.000000E+02   5.000000E+02   5.000000E+02   5.000000E+02   5.000000E+02   5.000000E+02   5.000000E+02   5.000000E+02   5.000000E+02   5.000000E+02   5.000000E+02   5.000000E+02   5.000000E+02   5.000000E+02   5.000000E+02   5.000000E+02   5.000000E+02   5.000000E+02   5.000000E+02   5.000000E+02   5.000000E+02   5.000000E+02   5.000000E+02   5.000000E+02   5.000000E+02   5.000000E+02   5.000000E+02   5.000000E+02   5.000000E+02   5.000000E+02   5.000000E+02   5.000000E+02   5.000000E+02   5.000000E+02   5.000000E+02   5.000000E+02   5.000000E+02   5.000000E+02   5.000000E+02   5.000000E+02   5.000000E+02   5.000000E+02   5.000000E+02   5.000000E+02   5.000000E+02   5.000000E+02   5.000000E+02   5.000000E+02   5.000000E+02   5.000000E+02   5.000000E+02   5.000000E+02   5.000000E+02   5.000000E+02   5.000000E+02   5.000000E+02   5.000000E+02   5.000000E+02   5.000000E+02   5.000000E+02   5.000000E+02   5.000000E+02   5.000000E+02   5.000000E+02   5.000000E+02   5.000000E+02   5.000000E+02   5.000000E+02   5.000000E+02   5.000000E+02   5.000000E+02   5.000000E+02   5.000000E+02   5.000000E+02   5.000000E+02   5.000000E+02   5.000000E+02   5.000000E+02   5.000000E+02   5.000000E+02   5.000000E+02   5.000000E+02   5.000000E+02   5.000000E+02   5.000000E+02   5.000000E+02   5.000000E+02   5.000000E+02   5.000000E+02   5.000000E+02   5.000000E+02   5.000000E+02   5.000000E+02   5.000000E+02   5.000000E+02   5.000000E+02   5.000000E+02   5.000000E+02   5.000000E+02   5.000000E+02   5.000000E+02   5.000000E+02   5.000000E+02   5.000000E+02   5.000000E+02   5.000000E+02   5.000000E+02   5.000000E+02   5.000000E+02   5.000000E+02   5.000000E+02   5.000000E+02   5.000000E+02   5.000000E+02   5.000000E+02   5.000000E+02   5.000000E+02   5.000000E+02   5.000000E+02   5.000000E+02   5.000000E+02   5.000000E+02   5.000000E+02   5.000000E+02   5.000000E+02   5.000000E+02   5.000000E+02   5.000000E+02   5.000000E+02   5.000000E+02   5.000000E+02   5.000000E+02   5.000000E+02   5.000000E+02   5.000000E+02   5.000000E+02   5.000000E+02   5.000000E+02   5.000000E+02   5.000000E+02   5.000000E+02   5.000000E+02   5.000000E+02   5.000000E+02   5.000000E+02   5.000000E+02   5.000000E+02   5.000000E+02   5.000000E+02   5.000000E+02   5.000000E+02   5.000000E+02   5.000000E+02   5.000000E+02   5.000000E+02   5.000000E+02   5.000000E+02   5.000000E+02   5.000000E+02   5.000000E+02   5.000000E+02   5.000000E+02   5.000000E+02   5.000000E+02   5.000000E+02   5.000000E+02   5.000000E+02   5.000000E+02   5.000000E+02   5.000000E+02   5.000000E+02   5.000000E+02   5.000000E+02   5.000000E+02   5.000000E+02   5.000000E+02   5.000000E+02   5.000000E+02   5.000000E+02   5.000000E+02   5.000000E+02   5.000000E+02   5.000000E+02   5.000000E+02   5.000000E+02   5.000000E+02   5.000000E+02   5.000000E+02   5.000000E+02   5.000000E+02   5.000000E+02   5.000000E+02   5.000000E+02   5.000000E+02   5.000000E+02   5.000000E+02   5.000000E+02   5.000000E+02   5.000000E+02   5.000000E+02   5.000000E+02   5.000000E+02   5.000000E+02   5.000000E+02   5.000000E+02   5.000000E+02   5.000000E+02   5.000000E+02   5.000000E+02   5.000000E+02   5.000000E+02   5.000000E+02   5.000000E+02   5.000000E+02   5.000000E+02   5.000000E+02   5.000000E+02   5.000000E+02   5.000000E+02   5.000000E+02   5.000000E+02   5.000000E+02   5.000000E+02   5.000000E+02   5.000000E+02   5.000000E+02   5.000000E+02   5.000000E+02   5.000000E+02   5.000000E+02   5.000000E+02   5.000000E+02   5.000000E+02   5.000000E+02   5.000000E+02   5.000000E+02   5.000000E+02   5.000000E+02   5.000000E+02   5.000000E+02   5.000000E+02   5.000000E+02   5.000000E+02   5.000000E+02   5.000000E+02   5.000000E+02   5.000000E+02   5.000000E+02   5.000000E+02   5.000000E+02   5.000000E+02   5.000000E+02   5.000000E+02   5.000000E+02   5.000000E+02   5.000000E+02   5.000000E+02   5.000000E+02   5.000000E+02   5.000000E+02   5.000000E+02   5.000000E+02   5.000000E+02   5.000000E+02   5.000000E+02   5.000000E+02   5.000000E+02   5.000000E+02   5.000000E+02   5.000000E+02   5.000000E+02   5.000000E+02   5.000000E+02   5.000000E+02   5.000000E+02   5.000000E+02   5.000000E+02   5.000000E+02   5.000000E+02   5.000000E+02   5.000000E+02   5.000000E+02   5.000000E+02   5.000000E+02   5.000000E+02   5.000000E+02   5.000000E+02   5.000000E+02   5.000000E+02   5.000000E+02   5.000000E+02
   5.000000E+02   5.000000E+02   5.000000E+02   5.000000E+02   5.000000E+02   5.000000E+02   5.000000E+02   5.000000E+02   5.000000E+02   5.000000E+02   5.000000E+02   5.000000E+02   5.000000E+02   5.000000E+02   5.000000E+02   5.000000E+02   5.000000E+02   5.000000E+02   5.000000E+02   5.000000E+02   5.000000E+02   5.000000E+02   5.000000E+02   5.000000E+02   5.000000E+02   5.000000E+02   5.000000E+02   5.000000E+02   5.000000E+02   5.000000E+02   5.000000E+02   5.000000E+02   5.000000E+02   5.000000E+02   5.000000E+02   5.000000E+02   5.000000E+02   5.000000E+02   5.000000E+02   5.000000E+02   5.000000E+02   5.000000E+02   5.000000E+02   5.000000E+02   5.000000E+02   5.000000E+02   5.000000E+02   5.000000E+02   5.000000E+02   5.000000E+02   5.000000E+02   5.000000E+02   5.000000E+02   5.000000E+02   5.000000E+02   5.000000E+02   5.000000E+02   5.000000E+02   5.000000E+02   5.000000E+02   5.000000E+02   5.000000E+02   5.000000E+02   5.000000E+02   5.000000E+02   5.000000E+02   5.000000E+02   5.000000E+02   5.000000E+02   5.000000E+02   5.000000E+02   5.000000E+02   5.000000E+02   5.000000E+02   5.000000E+02   5.000000E+02   5.000000E+02   5.000000E+02   5.000000E+02   5.000000E+02   5.000000E+02   5.000000E+02   5.000000E+02   5.000000E+02   5.000000E+02   5.000000E+02   5.000000E+02   5.000000E+02   5.000000E+02   5.000000E+02   5.000000E+02   5.000000E+02   5.000000E+02   5.000000E+02   5.000000E+02   5.000000E+02   5.000000E+02   5.000000E+02   5.000000E+02   5.000000E+02   5.000000E+02   5.000000E+02   5.000000E+02   5.000000E+02   5.000000E+02   5.000000E+02   5.000000E+02   5.000000E+02   5.000000E+02   5.000000E+02   5.000000E+02   5.000000E+02   5.000000E+02   5.000000E+02   5.000000E+02   5.000000E+02   5.000000E+02   5.000000E+02   5.000000E+02   5.000000E+02   5.000000E+02   5.000000E+02   5.000000E+02   5.000000E+02   5.000000E+02   5.000000E+02   5.000000E+02   5.000000E+02   5.000000E+02   5.000000E+02   5.000000E+02   5.000000E+02   5.000000E+02   5.000000E+02   5.000000E+02   5.000000E+02   5.000000E+02   5.000000E+02   5.000000E+02   5.000000E+02   5.000000E+02   5.000000E+02   5.000000E+02   5.000000E+02   5.000000E+02   5.000000E+02   5.000000E+02   5.000000E+02   5.000000E+02   5.000000E+02   5.000000E+02   5.000000E+02   5.000000E+02   5.000000E+02   5.000000E+02   5.000000E+02   5.000000E+02   5.000000E+02   5.000000E+02   5.000000E+02   5.000000E+02   5.000000E+02   5.000000E+02   5.000000E+02   5.000000E+02   5.000000E+02   5.000000E+02   5.000000E+02   5.000000E+02   5.000000E+02   5.000000E+02   5.000000E+02   5.000000E+02   5.000000E+02   5.000000E+02   5.000000E+02   5.000000E+02   5.000000E+02   5.000000E+02   5.000000E+02   5.000000E+02   5.000000E+02   5.000000E+02   5.000000E+02   5.000000E+02   5.000000E+02   5.000000E+02   5.000000E+02   5.000000E+02   5.000000E+02   5.000000E+02   5.000000E+02   5.000000E+02   5.000000E+02   5.000000E+02   5.000000E+02   5.000000E+02   5.000000E+02   5.000000E+02   5.000000E+02   5.000000E+02   5.000000E+02   5.000000E+02   5.000000E+02   5.000000E+02   5.000000E+02   5.000000E+02   5.000000E+02   5.000000E+02   5.000000E+02   5.000000E+02   5.000000E+02   5.000000E+02   5.000000E+02   5.000000E+02   5.000000E+02   5.000000E+02   5.000000E+02   5.000000E+02   5.000000E+02   5.000000E+02   5.000000E+02   5.000000E+02   5.000000E+02   5.000000E+02   5.000000E+02   5.000000E+02   5.000000E+02   5.000000E+02   5.000000E+02   5.000000E+02   5.000000E+02   5.000000E+02   5.000000E+02   5.000000E+02   5.000000E+02   5.000000E+02   5.000000E+02   5.000000E+02   5.000000E+02   5.000000E+02   5.000000E+02   5.000000E+02   5.000000E+02   5.000000E+02   5.000000E+02   5.000000E+02   5.000000E+02   5.000000E+02   5.000000E+02   5.000000E+02   5.000000E+02   5.000000E+02   5.000000E+02   5.000000E+02   5.000000E+02   5.000000E+02   5.000000E+02   5.000000E+02   5.000000E+02   5.000000E+02   5.000000E+02   5.000000E+02   5.000000E+02   5.000000E+02   5.000000E+02   5.000000E+02   5.000000E+02   5.000000E+02   5.000000E+02   5.000000E+02   5.000000E+02   5.000000E+02   5.000000E+02   5.000000E+02   5.000000E+02   5.000000E+02   5.000000E+02   5.000000E+02   5.000000E+02   5.000000E+02   5.000000E+02   5.000000E+02   5.000000E+02   5.000000E+02   5.000000E+02   5.000000E+02   5.000000E+02   5.000000E+02   5.000000E+02   5.000000E+02   5.000000E+02   5.000000E+02   5.000000E+02   5.000000E+02   5.000000E+02   5.000000E+02   5.000000E+02   5.000000E+02   5.000000E+02   5.000000E+02   5.000000E+02   5.000000E+02   5.000000E+02   5.000000E+02   5.000000E+02   5.000000E+02   5.000000E+02   5.000000E+02   5.000000E+02   5.000000E+02   5.000000E+02   5.000000E+02   5.000000E+02   5.000000E+02   5.000000E+02   5.000000E+02   5.000000E+02   5.000000E+02   5.000000E+02   5.000000E+02   5.000000E+02   5.000000E+02   5.000000E+02   5.000000E+02   5.000000E+02   5.000000E+02   5.000000E+02   5.000000E+02   5.000000E+02   5.000000E+02   5.000000E+02   5.000000E+02   5.000000E+02   5.000000E+02   5.000000E+02   5.000000E+02   5.000000E+02   5.000000E+02   5.000000E+02   5.000000E+02   5.000000E+02   5.000000E+02   5.000000E+02   5.000000E+02   5.000000E+02   5.000000E+02   5.000000E+02   5.000000E+02   5.000000E+02   5.000000E+02   5.000000E+02   5.000000E+02   5.000000E+02   5.000000E+02   5.000000E+02   5.000000E+02   5.000000E+02   5.000000E+02   5.000000E+02   5.000000E+02   5.000000E+02   5.000000E+02   5.000000E+02   5.000000E+02   5.000000E+02   5.000000E+02   5.000000E+02   5.000000E+02   5.000000E+02   5.000000E+02   5.000000E+02   5.000000E+02   5.000000E+02   5.000000E+02   5.000000E+02   5.000000E+02   5.000000E+02   5.000000E+02   5.000000E+02   5.000000E+02   5.000000E+02   5.000000E+02   5.000000E+02   5.000000E+02   5.000000E+02   5.000000E+02   5.000000E+02   5.000000E+02   5.000000E+02
   5.000000E+02   5.000000E+02   5.000000E+02   5.000000E+02   5.000000E+02   5.000000E+02   5.000000E+02   5.000000E+02   5.000000E+02   5.000000E+02   5.000000E+02   5.000000E+02   5.000000E+02   5.000000E+02   5.000000E+02   5.000000E+02   5.000000E+02   5.000000E+02   5.000000E+02   5.000000E+02   5.000000E+02   5.000000E+02   5.000000E+02   5.000000E+02   5.000000E+02   5.000000E+02   5.000000E+02   5.000000E+02   5.000000E+02   5.000000E+02   5.000000E+02   5.000000E+02   5.000000E+02   5.000000E+02   5.000000E+02   5.000000E+02   5.000000E+02   5.000000E+02   5.000000E+02   5.000000E+02   5.000000E+02   5.000000E+02   5.000000E+02   5.000000E+02   5.000000E+02   5.000000E+02   5.000000E+02   5.000000E+02   5.000000E+02   5.000000E+02   5.000000E+02   5.000000E+02   5.000000E+02   5.000000E+02   5.000000E+02   5.000000E+02   5.000000E+02   5.000000E+02   5.000000E+02   5.000000E+02   5.000000E+02   5.000000E+02   5.000000E+02   5.000000E+02   5.000000E+02   5.000000E+02   5.000000E+02   5.000000E+02   5.000000E+02   5.000000E+02   5.000000E+02   5.000000E+02   5.000000E+02   5.000000E+02   5.000000E+02   5.000000E+02   5.000000E+02   5.000000E+02   5.000000E+02   5.000000E+02   5.000000E+02   5.000000E+02   5.000000E+02   5.000000E+02   5.000000E+02   5.000000E+02   5.000000E+02   5.000000E+02   5.000000E+02   5.000000E+02   5.000000E+02   5.000000E+02   5.000000E+02   5.000000E+02   5.000000E+02   5.000000E+02   5.000000E+02   5.000000E+02   5.000000E+02   5.000000E+02   5.000000E+02   5.000000E+02   5.000000E+02   5.000000E+02   5.000000E+02   5.000000E+02   5.000000E+02   5.000000E+02   5.000000E+02   5.000000E+02   5.000000E+02   5.000000E+02   5.000000E+02   5.000000E+02   5.000000E+02   5.000000E+02   5.000000E+02   5.000000E+02   5.000000E+02   5.000000E+02   5.000000E+02   5.000000E+02   5.000000E+02   5.000000E+02   5.000000E+02   5.000000E+02   5.000000E+02   5.000000E+02   5.000000E+02   5.000000E+02   5.000000E+02   5.000000E+02   5.000000E+02   5.000000E+02   5.000000E+02   5.000000E+02   5.000000E+02   5.000000E+02   5.000000E+02   5.000000E+02   5.000000E+02   5.000000E+02   5.000000E+02   5.000000E+02   5.000000E+02   5.000000E+02   5.000000E+02   5.000000E+02   5.000000E+02   5.000000E+02   5.000000E+02   5.000000E+02   5.000000E+02   5.000000E+02   5.000000E+02   5.000000E+02   5.000000E+02   5.000000E+02   5.000000E+02   5.000000E+02   5.000000E+02   5.000000E+02   5.000000E+02   5.000000E+02   5.000000E+02   5.000000E+02   5.000000E+02   5.000000E+02   5.000000E+02   5.000000E+02   5.000000E+02   5.000000E+02   5.000000E+02   5.000000E+02   5.000000E+02   5.000000E+02   5.000000E+02   5.000000E+02   5.000000E+02   5.000000E+02   5.000000E+02   5.000000E+02   5.000000E+02   5.000000E+02   5.000000E+02   5.000000E+02   5.000000E+02   5.000000E+02   5.000000E+02   5.000000E+02   5.000000E+02   5.000000E+02   5.000000E+02   5.000000E+02   5.000000E+02   5.000000E+02   5.000000E+02   5.000000E+02   5.000000E+02   5.000000E+02   5.000000E+02   5.000000E+02   5.000000E+02   5.000000E+02   5.000000E+02   5.000000E+02   5.000000E+02   5.000000E+02   5.000000E+02   5.000000E+02   5.000000E+02   5.000000E+02   5.000000E+02   5.000000E+02   5.000000E+02   5.000000E+02   5.000000E+02   5.000000E+02   5.000000E+02   5.000000E+02   5.000000E+02   5.000000E+02   5.000000E+02   5.000000E+02   5.000000E+02   5.000000E+02   5.000000E+02   5.000000E+02   5.000000E+02   5.000000E+02   5.000000E+02   5.000000E+02   5.000000E+02   5.000000E+02   5.000000E+02   5.000000E+02   5.000000E+02   5.000000E+02   5.000000E+02   5.000000E+02   5.000000E+02   5.000000E+02   5.000000E+02   5.000000E+02   5.000000E+02   5.000000E+02   5.000000E+02   5.000000E+02   5.000000E+02   5.000000E+02   5.000000E+02   5.000000E+02   5.000000E+02   5.000000E+02   5.000000E+02   5.000000E+02   5.000000E+02   5.000000E+02   5.000000E+02   5.000000E+02   5.000000E+02   5.000000E+02   5.000000E+02   5.000000E+02   5.000000E+02   5.000000E+02   5.000000E+02   5.000000E+02   5.000000E+02   5.000000E+02   5.000000E+02   5.000000E+02   5.000000E+02   5.000000E+02   5.000000E+02   5.000000E+02   5.000000E+02   5.000000E+02   5.000000E+02   5.000000E+02   5.000000E+02   5.000000E+02   5.000000E+02   5.000000E+02   5.000000E+02   5.000000E+02   5.000000E+02   5.000000E+02   5.000000E+02   5.000000E+02   5.000000E+02   5.000000E+02   5.000000E+02   5.000000E+02   5.000000E+02   5.000000E+02   5.000000E+02   5.000000E+02   5.000000E+02   5.000000E+02   5.000000E+02   5.000000E+02   5.000000E+02   5.000000E+02   5.000000E+02   5.000000E+02   5.000000E+02   5.000000E+02   5.000000E+02   5.000000E+02   5.000000E+02   5.000000E+02   5.000000E+02   5.000000E+02   5.000000E+02   5.000000E+02   5.000000E+02   5.000000E+02   5.000000E+02   5.000000E+02   5.000000E+02   5.000000E+02   5.000000E+02   5.000000E+02   5.000000E+02   5.000000E+02   5.000000E+02   5.000000E+02   5.000000E+02   5.000000E+02   5.000000E+02   5.000000E+02   5.000000E+02   5.000000E+02   5.000000E+02   5.000000E+02   5.000000E+02   5.000000E+02   5.000000E+02   5.000000E+02   5.000000E+02   5.000000E+02   5.000000E+02   5.000000E+02   5.000000E+02   5.000000E+02   5.000000E+02   5.000000E+02   5.000000E+02   5.000000E+02   5.000000E+02   5.000000E+02   5.000000E+02   5.000000E+02   5.000000E+02   5.000000E+02   5.000000E+02   5.000000E+02   5.000000E+02   5.000000E+02   5.000000E+02   5.000000E+02   5.000000E+02   5.000000E+02   5.000000E+02   5.000000E+02   5.000000E+02   5.000000E+02   5.000000E+02   5.000000E+02   5.000000E+02   5.000000E+02   5.000000E+02   5.000000E+02   5.000000E+02   5.000000E+02   5.000000E+02   5.000000E+02   5.000000E+02   5.000000E+02   5.000000E+02   5.000000E+02   5.000000E+02   5.000000E+02   5.000000E+02   5.000000E+02   5.000000E+02   5.000000E+02   5.000000E+02   5.000000E+02
   5.000000E+02   5.000000E+02   5.000000E+02   5.000000E+02   5.000000E+02   5.000000E+02   5.000000E+02   5.000000E+02   5.000000E+02   5.000000E+02   5.000000E+02   5.000000E+02   5.000000E+02   5.000000E+02   5.000000E+02   5.000000E+02   5.000000E+02   5.000000E+02   5.000000E+02   5.000000E+02   5.000000E+02   5.000000E+02   5.000000E+02   5.000000E+02   5.000000E+02   5.000000E+02   5.000000E+02   5.000000E+02   5.000000E+02   5.000000E+02   5.000000E+02   5.000000E+02   5.000000E+02   5.000000E+02   5.000000E+02   5.000000E+02   5.000000E+02   5.000000E+02   5.000000E+02   5.000000E+02   5.000000E+02   5.000000E+02   5.000000E+02   5.000000E+02   5.000000E+02   5.000000E+02   5.000000E+02   5.000000E+02   5.000000E+02   5.000000E+02   5.000000E+02   5.000000E+02   5.000000E+02   5.000000E+02   5.000000E+02   5.000000E+02   5.000000E+02   5.000000E+02   5.000000E+02   5.000000E+02   5.000000E+02   5.000000E+02   5.000000E+02   5.000000E+02   5.000000E+02   5.000000E+02   5.000000E+02   5.000000E+02   5.000000E+02   5.000000E+02   5.000000E+02   5.000000E+02   5.000000E+02   5.000000E+02   5.000000E+02   5.000000E+02   5.000000E+02   5.000000E+02   5.000000E+02   5.000000E+02   5.000000E+02   5.000000E+02   5.000000E+02   5.000000E+02   5.000000E+02   5.000000E+02   5.000000E+02   5.000000E+02   5.000000E+02   5.000000E+02   5.000000E+02   5.000000E+02   5.000000E+02   5.000000E+02   5.000000E+02   5.000000E+02   5.000000E+02   5.000000E+02   5.000000E+02   5.000000E+02   5.000000E+02   5.000000E+02   5.000000E+02   5.000000E+02   5.000000E+02   5.000000E+02   5.000000E+02   5.000000E+02   5.000000E+02   5.000000E+02   5.000000E+02   5.000000E+02   5.000000E+02   5.000000E+02   5.000000E+02   5.000000E+02   5.000000E+02   5.000000E+02   5.000000E+02   5.000000E+02   5.000000E+02   5.000000E+02   5.000000E+02   5.000000E+02   5.000000E+02   5.000000E+02   5.000000E+02   5.000000E+02   5.000000E+02   5.000000E+02   5.000000E+02   5.000000E+02   5.000000E+02   5.000000E+02   5.000000E+02   5.000000E+02   5.000000E+02   5.000000E+02   5.000000E+02   5.000000E+02   5.000000E+02   5.000000E+02   5.000000E+02   5.000000E+02   5.000000E+02   5.000000E+02   5.000000E+02   5.000000E+02   5.000000E+02   5.000000E+02   5.000000E+02   5.000000E+02   5.000000E+02   5.000000E+02   5.000000E+02   5.000000E+02   5.000000E+02   5.000000E+02   5.000000E+02   5.000000E+02   5.000000E+02   5.000000E+02   5.000000E+02   5.000000E+02   5.000000E+02   5.000000E+02   5.000000E+02   5.000000E+02   5.000000E+02   5.000000E+02   5.000000E+02   5.000000E+02   5.000000E+02   5.000000E+02   5.000000E+02   5.000000E+02   5.000000E+02   5.000000E+02   5.000000E+02   5.000000E+02   5.000000E+02   5.000000E+02   5.000000E+02   5.000000E+02   5.000000E+02   5.000000E+02   5.000000E+02   5.000000E+02   5.000000E+02   5.000000E+02   5.000000E+02   5.000000E+02   5.000000E+02   5.000000E+02   5.000000E+02   5.000000E+02   5.000000E+02   5.000000E+02   5.000000E+02   5.000000E+02   5.000000E+02   5.000000E+02   5.000000E+02   5.000000E+02   5.000000E+02   5.000000E+02   5.000000E+02   5.000000E+02   5.000000E+02   5.000000E+02   5.000000E+02   5.000000E+02   5.000000E+02   5.000000E+02   5.000000E+02   5.000000E+02   5.000000E+02   5.000000E+02   5.000000E+02   5.000000E+02   5.000000E+02   5.000000E+02   5.000000E+02   5.000000E+02   5.000000E+02   5.000000E+02   5.000000E+02   5.000000E+02   5.000000E+02   5.000000E+02   5.000000E+02   5.000000E+02   5.000000E+02   5.000000E+02   5.000000E+02   5.000000E+02   5.000000E+02   5.000000E+02   5.000000E+02   5.000000E+02   5.000000E+02   5.000000E+02   5.000000E+02   5.000000E+02   5.000000E+02   5.000000E+02   5.000000E+02   5.000000E+02   5.000000E+02   5.000000E+02   5.000000E+02   5.000000E+02   5.000000E+02   5.000000E+02   5.000000E+02   5.000000E+02   5.000000E+02   5.000000E+02   5.000000E+02   5.000000E+02   5.000000E+02   5.000000E+02   5.000000E+02   5.000000E+02   5.000000E+02   5.000000E+02   5.000000E+02   5.000000E+02   5.000000E+02   5.000000E+02   5.000000E+02   5.000000E+02   5.000000E+02   5.000000E+02   5.000000E+02   5.000000E+02   5.000000E+02   5.000000E+02   5.000000E+02   5.000000E+02   5.000000E+02   5.000000E+02   5.000000E+02   5.000000E+02   5.000000E+02   5.000000E+02   5.000000E+02   5.000000E+02   5.000000E+02   5.000000E+02   5.000000E+02   5.000000E+02   5.000000E+02   5.000000E+02   5.000000E+02   5.000000E+02   5.000000E+02   5.000000E+02   5.000000E+02   5.000000E+02   5.000000E+02   5.000000E+02   5.000000E+02   5.000000E+02   5.000000E+02   5.000000E+02   5.000000E+02   5.000000E+02   5.000000E+02   5.000000E+02   5.000000E+02   5.000000E+02   5.000000E+02   5.000000E+02   5.000000E+02   5.000000E+02   5.000000E+02   5.000000E+02   5.000000E+02   5.000000E+02   5.000000E+02   5.000000E+02   5.000000E+02   5.000000E+02   5.000000E+02   5.000000E+02   5.000000E+02   5.000000E+02   5.000000E+02   5.000000E+02   5.000000E+02   5.000000E+02   5.000000E+02   5.000000E+02   5.000000E+02   5.000000E+02   5.000000E+02   5.000000E+02   5.000000E+02   5.000000E+02   5.000000E+02   5.000000E+02   5.000000E+02   5.000000E+02   5.000000E+02   5.000000E+02   5.000000E+02   5.000000E+02   5.000000E+02   5.000000E+02   5.000000E+02   5.000000E+02   5.000000E+02   5.000000E+02   5.000000E+02   5.000000E+02   5.000000E+02   5.000000E+02   5.000000E+02   5.000000E+02   5.000000E+02   5.000000E+02   5.000000E+02   5.000000E+02   5.000000E+02   5.000000E+02   5.000000E+02   5.000000E+02   5.000000E+02   5.000000E+02   5.000000E+02   5.000000E+02   5.000000E+02   5.000000E+02   5.000000E+02   5.000000E+02   5.000000E+02   5.000000E+02   5.000000E+02   5.000000E+02   5.000000E+02   5.000000E+02   5.000000E+02   5.000000E+02   5.000000E+02   5.000000E+02   5.000000E+02   5.000000E+02   5.000000E+02   5.000000E+02