# RIV package for  MODFLOW-2005, generated by Flopy.
      2175         0
      2175         0 # stress period 1
         1         1        29          508.83          5000.0          505.83
         1         1        30          508.83          5000.0          505.83
         1         1        78          586.38          5000.0          583.38
         1         1        99           446.6          5000.0           443.6
         1         1       100           445.8          5000.0           442.8
         1         1       104           445.8          5000.0           442.8
         1         1       108          453.97          5000.0          450.97
         1         1       109          455.03          5000.0          452.03
         1         1       114          504.81          5000.0          501.81
         1         1       115          506.57          5000.0          503.57
         1         1       116          512.44          5000.0          509.44
         1         1       130           739.9          5000.0           736.9
         1         1       144          648.34          5000.0          645.34
         1         1       145          647.58          5000.0          644.58
         1         1       148          627.13          5000.0          624.13
         1         1       149          627.72          5000.0          624.72
         1         1       150          628.21          5000.0          625.21
         1         1       151           628.4          5000.0           625.4
         1         1       155          638.58          5000.0          635.58
         1         1       156          638.58          5000.0          635.58
         1         2        28          508.83          5000.0          505.83
         1         2        29          508.83          5000.0          505.83
         1         2        77          573.06          5000.0          570.06
         1         2        78          576.74          5000.0          573.74
         1         2       100           445.8          5000.0           442.8
         1         2       101           445.8          5000.0           442.8
         1         2       102           445.8          5000.0           442.8
         1         2       103           445.8          5000.0           442.8
         1         2       104           445.8          5000.0           442.8
         1         2       130          737.06          5000.0          734.06
         1         2       144          636.51          5000.0          633.51
         1         2       145          632.91          5000.0          629.91
         1         2       146          628.46          5000.0          625.46
         1         2       148          619.03          5000.0          616.03
         1         2       149          620.34          5000.0          617.34
         1         2       150          628.17          5000.0          625.17
         1         2       151          628.79          5000.0          625.79
         1         2       152          628.79          5000.0          625.79
         1         2       153          628.79          5000.0          625.79
         1         2       154          638.58          5000.0          635.58
         1         2       155          638.58          5000.0          635.58
         1         2       156          638.58          5000.0          635.58
         1         3        27          508.34          5000.0          505.34
         1         3        28          508.83          5000.0          505.83
         1         3        29          506.84          5000.0          503.84
         1         3        30          510.98          5000.0          507.98
         1         3        31          518.65          5000.0          515.65
         1         3        32          525.26          5000.0          522.26
         1         3        77          564.72          5000.0          561.72
         1         3       104           445.8          5000.0           442.8
         1         3       130          729.39          5000.0          726.39
         1         3       131          720.89          5000.0          717.89
         1         3       145          633.18          5000.0          630.18
         1         3       146           626.1          5000.0           623.1
         1         3       147          619.03          5000.0          616.03
         1         3       148          619.03          5000.0          616.03
         1         3       153          628.79          5000.0          625.79
         1         3       154          628.79          5000.0          625.79
         1         3       155          638.58          5000.0          635.58
         1         3       156          638.58          5000.0          635.58
         1         4        27          500.32          5000.0          497.32
         1         4        28          500.32          5000.0          497.32
         1         4        29          501.79          5000.0          498.79
         1         4        32          535.88          5000.0          532.88
         1         4        33          534.56          5000.0          531.56
         1         4        34          549.27          5000.0          546.27
         1         4        35          563.12          5000.0          560.12
         1         4        77          558.07          5000.0          555.07
         1         4        90          530.01          5000.0          527.01
         1         4       103           445.8          5000.0           442.8
         1         4       104           445.8          5000.0           442.8
         1         4       131          718.54          5000.0          715.54
         1         4       146          619.03          5000.0          616.03
         1         4       147          619.03          5000.0          616.03
         1         4       148          619.03          5000.0          616.03
         1         4       153          634.37          5000.0          631.37
         1         4       154           637.3          5000.0           634.3
         1         4       155          638.02          5000.0          635.02
         1         4       156           644.0          5000.0           641.0
         1         5        28          500.32          5000.0          497.32
         1         5        77          553.69          5000.0          550.69
         1         5        78          551.69          5000.0          548.69
         1         5        90          526.78          5000.0          523.78
         1         5        91          518.76          5000.0          515.76
         1         5       102           445.8          5000.0           442.8
         1         5       103           445.8          5000.0           442.8
         1         5       131          718.06          5000.0          715.06
         1         5       132          718.06          5000.0          715.06
         1         5       145          619.03          5000.0          616.03
         1         5       146          619.03          5000.0          616.03
         1         5       147          619.03          5000.0          616.03
         1         6        28          500.06          5000.0          497.06
         1         6        78          544.09          5000.0          541.09
         1         6        79          538.37          5000.0          535.37
         1         6        90          512.56          5000.0          509.56
         1         6        91          516.13          5000.0          513.13
         1         6       101           445.8          5000.0           442.8
         1         6       102           445.8          5000.0           442.8
         1         6       131          717.96          5000.0          714.96
         1         6       132          709.47          5000.0          706.47
         1         6       133          708.68          5000.0          705.68
         1         6       143          608.46          5000.0          605.46
         1         6       144          608.46          5000.0          605.46
         1         6       145          617.21          5000.0          614.21
         1         6       146          619.03          5000.0          616.03
         1         7        25          498.65          5000.0          495.65
         1         7        26          498.65          5000.0          495.65
         1         7        27          498.65          5000.0          495.65
         1         7        28          498.65          5000.0          495.65
         1         7        79          536.36          5000.0          533.36
         1         7        90          497.48          5000.0          494.48
         1         7        91          498.37          5000.0          495.37
         1         7       101           445.8          5000.0           442.8
         1         7       132          698.57          5000.0          695.57
         1         7       133          698.66          5000.0          695.66
         1         7       143          608.46          5000.0          605.46
         1         7       144          608.46          5000.0          605.46
         1         7       145          619.03          5000.0          616.03
         1         8        23          496.33          5000.0          493.33
         1         8        24          497.57          5000.0          494.57
         1         8        25          498.65          5000.0          495.65
         1         8        79          530.86          5000.0          527.86
         1         8        82           551.6          5000.0           548.6
         1         8        83          549.58          5000.0          546.58
         1         8        90          497.28          5000.0          494.28
         1         8        91          487.67          5000.0          484.67
         1         8       100           445.8          5000.0           442.8
         1         8       101           445.8          5000.0           442.8
         1         8       102          446.63          5000.0          443.63
         1         8       132          698.49          5000.0          695.49
         1         8       144          608.46          5000.0          605.46
         1         9        22          493.98          5000.0          490.98
         1         9        23          494.79          5000.0          491.79
         1         9        79          522.73          5000.0          519.73
         1         9        81          530.64          5000.0          527.64
         1         9        82          537.57          5000.0          534.57
         1         9        83          545.58          5000.0          542.58
         1         9        90          481.31          5000.0          478.31
         1         9        91          483.11          5000.0          480.11
         1         9        99           445.8          5000.0           442.8
         1         9       100           445.8          5000.0           442.8
         1         9       102          448.95          5000.0          445.95
         1         9       103          449.89          5000.0          446.89
         1         9       131          694.85          5000.0          691.85
         1         9       132          692.21          5000.0          689.21
         1         9       142          606.51          5000.0          603.51
         1         9       143          607.96          5000.0          604.96
         1         9       144          608.46          5000.0          605.46
         1         9       149          690.07          5000.0          687.07
         1         9       150          698.04          5000.0          695.04
         1         9       151          705.67          5000.0          702.67
         1        10        22          492.47          5000.0          489.47
         1        10        68          526.79          5000.0          523.79
         1        10        79          517.16          5000.0          514.16
         1        10        80          517.97          5000.0          514.97
         1        10        81          525.15          5000.0          522.15
         1        10        82          536.38          5000.0          533.38
         1        10        90          481.31          5000.0          478.31
         1        10        91          481.31          5000.0          478.31
         1        10        99           445.8          5000.0           442.8
         1        10       103          459.71          5000.0          456.71
         1        10       104          471.64          5000.0          468.64
         1        10       131          685.05          5000.0          682.05
         1        10       132          690.71          5000.0          687.71
         1        10       141          603.59          5000.0          600.59
         1        10       142          605.88          5000.0          602.88
         1        10       147          668.27          5000.0          665.27
         1        10       148          671.12          5000.0          668.12
         1        10       149           686.0          5000.0           683.0
         1        10       151          705.28          5000.0          702.28
         1        10       152          712.31          5000.0          709.31
         1        11        22          492.47          5000.0          489.47
         1        11        23          490.47          5000.0          487.47
         1        11        68          516.61          5000.0          513.61
         1        11        75          498.67          5000.0          495.67
         1        11        76           501.1          5000.0           498.1
         1        11        77          507.61          5000.0          504.61
         1        11        78          508.87          5000.0          505.87
         1        11        79          514.61          5000.0          511.61
         1        11        80          516.63          5000.0          513.63
         1        11        91          468.44          5000.0          465.44
         1        11        92           463.2          5000.0           460.2
         1        11        93          457.75          5000.0          454.75
         1        11        94          454.18          5000.0          451.18
         1        11        99           445.8          5000.0           442.8
         1        11       104          476.45          5000.0          473.45
         1        11       105          487.38          5000.0          484.38
         1        11       106          500.09          5000.0          497.09
         1        11       130          676.41          5000.0          673.41
         1        11       131           679.7          5000.0           676.7
         1        11       141          601.52          5000.0          598.52
         1        11       147           657.0          5000.0           654.0
         1        11       148          667.49          5000.0          664.49
         1        11       149          683.65          5000.0          680.65
         1        12        23          490.08          5000.0          487.08
         1        12        24          488.49          5000.0          485.49
         1        12        25          487.84          5000.0          484.84
         1        12        26          487.51          5000.0          484.51
         1        12        27          486.63          5000.0          483.63
         1        12        28           486.0          5000.0           483.0
         1        12        68          508.55          5000.0          505.55
         1        12        74          488.18          5000.0          485.18
         1        12        75          497.67          5000.0          494.67
         1        12        76          499.21          5000.0          496.21
         1        12        77          505.72          5000.0          502.72
         1        12        78          509.74          5000.0          506.74
         1        12        94           445.8          5000.0           442.8
         1        12        99           445.8          5000.0           442.8
         1        12       106          500.96          5000.0          497.96
         1        12       129          659.36          5000.0          656.36
         1        12       130          664.02          5000.0          661.02
         1        12       131           679.7          5000.0           676.7
         1        12       141          598.81          5000.0          595.81
         1        12       142          613.93          5000.0          610.93
         1        12       143          614.95          5000.0          611.95
         1        12       144          627.58          5000.0          624.58
         1        12       145          638.03          5000.0          635.03
         1        12       146          647.94          5000.0          644.94
         1        12       147          655.21          5000.0          652.21
         1        13         4          628.56          5000.0          625.56
         1        13        28          484.96          5000.0          481.96
         1        13        68          496.82          5000.0          493.82
         1        13        69          494.91          5000.0          491.91
         1        13        74          485.75          5000.0          482.75
         1        13        75          483.34          5000.0          480.34
         1        13        94           445.8          5000.0           442.8
         1        13        95           445.8          5000.0           442.8
         1        13        99           445.8          5000.0           442.8
         1        13       100           445.8          5000.0           442.8
         1        13       129          651.49          5000.0          648.49
         1        13       139          598.44          5000.0          595.44
         1        13       140          598.44          5000.0          595.44
         1        13       141          598.44          5000.0          595.44
         1        13       142          605.02          5000.0          602.02
         1        13       143           623.8          5000.0           620.8
         1        14         4          627.88          5000.0          624.88
         1        14        28           484.2          5000.0           481.2
         1        14        69          487.22          5000.0          484.22
         1        14        74          478.52          5000.0          475.52
         1        14        75          481.88          5000.0          478.88
         1        14        94           445.8          5000.0           442.8
         1        14        95           445.8          5000.0           442.8
         1        14        99           445.8          5000.0           442.8
         1        14       100           445.8          5000.0           442.8
         1        14       125          632.98          5000.0          629.98
         1        14       126          622.51          5000.0          619.51
         1        14       127          624.42          5000.0          621.42
         1        14       128          644.71          5000.0          641.71
         1        14       129          651.56          5000.0          648.56
         1        14       136          588.71          5000.0          585.71
         1        14       137           598.4          5000.0           595.4
         1        14       139          598.44          5000.0          595.44
         1        15         2          618.53          5000.0          615.53
         1        15         3           618.7          5000.0           615.7
         1        15         4          627.15          5000.0          624.15
         1        15        28          483.62          5000.0          480.62
         1        15        69          480.84          5000.0          477.84
         1        15        70          477.39          5000.0          474.39
         1        15        73          478.52          5000.0          475.52
         1        15        74          478.52          5000.0          475.52
         1        15        94           445.8          5000.0           442.8
         1        15        98           445.8          5000.0           442.8
         1        15        99           445.8          5000.0           442.8
         1        15       116          641.28          5000.0          638.28
         1        15       125          624.78          5000.0          621.78
         1        15       126          613.16          5000.0          610.16
         1        15       127           629.3          5000.0           626.3
         1        15       135          588.67          5000.0          585.67
         1        15       136          588.67          5000.0          585.67
         1        15       137          588.67          5000.0          585.67
         1        15       138          598.44          5000.0          595.44
         1        15       139          598.44          5000.0          595.44
         1        16         1          616.15          5000.0          613.15
         1        16         2          618.22          5000.0          615.22
         1        16        27          482.54          5000.0          479.54
         1        16        28          482.91          5000.0          479.91
         1        16        31          511.58          5000.0          508.58
         1        16        32          513.24          5000.0          510.24
         1        16        70          470.92          5000.0          467.92
         1        16        71          462.96          5000.0          459.96
         1        16        72          458.11          5000.0          455.11
         1        16        73          458.71          5000.0          455.71
         1        16        74          478.52          5000.0          475.52
         1        16        92           445.8          5000.0           442.8
         1        16        93           445.8          5000.0           442.8
         1        16        94           445.8          5000.0           442.8
         1        16        95           445.8          5000.0           442.8
         1        16        96           445.8          5000.0           442.8
         1        16        97           445.8          5000.0           442.8
         1        16        98           445.8          5000.0           442.8
         1        16       115          631.43          5000.0          628.43
         1        16       116          632.52          5000.0          629.52
         1        16       124          613.89          5000.0          610.89
         1        16       125          617.72          5000.0          614.72
         1        16       126          605.93          5000.0          602.93
         1        16       132          585.16          5000.0          582.16
         1        16       133          588.46          5000.0          585.46
         1        16       134          588.61          5000.0          585.61
         1        16       135          588.66          5000.0          585.66
         1        17         1          612.87          5000.0          609.87
         1        17        26          481.72          5000.0          478.72
         1        17        27           481.2          5000.0           478.2
         1        17        31          508.11          5000.0          505.11
         1        17        56          598.61          5000.0          595.61
         1        17        72          455.73          5000.0          452.73
         1        17        73          461.54          5000.0          458.54
         1        17        74          478.47          5000.0          475.47
         1        17        85           445.8          5000.0           442.8
         1        17        86           445.8          5000.0           442.8
         1        17        87           445.8          5000.0           442.8
         1        17        88           445.8          5000.0           442.8
         1        17        89           445.8          5000.0           442.8
         1        17        90           445.8          5000.0           442.8
         1        17        91           445.8          5000.0           442.8
         1        17        92           445.8          5000.0           442.8
         1        17        96           445.8          5000.0           442.8
         1        17        97           445.8          5000.0           442.8
         1        17       115          625.34          5000.0          622.34
         1        17       124          598.17          5000.0          595.17
         1        17       125          595.79          5000.0          592.79
         1        17       126          602.35          5000.0          599.35
         1        17       132          580.13          5000.0          577.13
         1        18         1          609.64          5000.0          606.64
         1        18        26          480.65          5000.0          477.65
         1        18        27          480.45          5000.0          477.45
         1        18        30           503.5          5000.0           500.5
         1        18        31          504.67          5000.0          501.67
         1        18        56           588.6          5000.0           585.6
         1        18        71          455.73          5000.0          452.73
         1        18        72          455.73          5000.0          452.73
         1        18        73          465.11          5000.0          462.11
         1        18        82          445.21          5000.0          442.21
         1        18        83           445.8          5000.0           442.8
         1        18        84           445.8          5000.0           442.8
         1        18        85           445.8          5000.0           442.8
         1        18        91           445.8          5000.0           442.8
         1        18       115          617.56          5000.0          614.56
         1        18       124          591.22          5000.0          588.22
         1        18       125          584.73          5000.0          581.73
         1        18       130          578.72          5000.0          575.72
         1        18       131          578.72          5000.0          575.72
         1        18       132          578.72          5000.0          575.72
         1        19         1           608.6          5000.0           605.6
         1        19        27          478.49          5000.0          475.49
         1        19        30          498.44          5000.0          495.44
         1        19        31          501.67          5000.0          498.67
         1        19        55          581.74          5000.0          578.74
         1        19        56          588.06          5000.0          585.06
         1        19        71          456.02          5000.0          453.02
         1        19        72          453.22          5000.0          450.22
         1        19        80          445.21          5000.0          442.21
         1        19        81          445.21          5000.0          442.21
         1        19        82          445.21          5000.0          442.21
         1        19        91           445.8          5000.0           442.8
         1        19       115          617.33          5000.0          614.33
         1        19       125          583.93          5000.0          580.93
         1        19       130          578.72          5000.0          575.72
         1        19       131          578.72          5000.0          575.72
         1        20         1           608.6          5000.0           605.6
         1        20        25          478.49          5000.0          475.49
         1        20        26          478.49          5000.0          475.49
         1        20        27          478.49          5000.0          475.49
         1        20        29          489.21          5000.0          486.21
         1        20        30          496.32          5000.0          493.32
         1        20        31          499.21          5000.0          496.21
         1        20        55          575.52          5000.0          572.52
         1        20        71          453.22          5000.0          450.22
         1        20        79          444.89          5000.0          441.89
         1        20        80          444.85          5000.0          441.85
         1        20        91           445.8          5000.0           442.8
         1        20       115          609.04          5000.0          606.04
         1        20       125          583.93          5000.0          580.93
         1        20       126          577.54          5000.0          574.54
         1        20       129          567.89          5000.0          564.89
         1        20       130          572.72          5000.0          569.72
         1        21         1           608.6          5000.0           605.6
         1        21        14          535.63          5000.0          532.63
         1        21        15          526.75          5000.0          523.75