# RIV package for  MODFLOW-2005, generated by Flopy.
       205         0
       205         0 # stress period 1
         1         1        13          638.52          5000.0          635.52
         1         1        14          639.54          5000.0          636.54
         1         1        20          645.06          5000.0          642.06
         1         2        13          634.71          5000.0          631.71
         1         2        20          638.25          5000.0          635.25
         1         3        12          628.46          5000.0          625.46
         1         3        13          630.13          5000.0          627.13
         1         3        15          631.66          5000.0          628.66
         1         3        16          631.66          5000.0          628.66
         1         3        17          631.66          5000.0          628.66
         1         3        18          631.66          5000.0          628.66
         1         3        19          638.21          5000.0          635.21
         1         3        20          638.25          5000.0          635.25
         1         4        11          622.29          5000.0          619.29
         1         4        12          623.44          5000.0          620.44
         1         4        13          626.06          5000.0          623.06
         1         4        14          630.56          5000.0          627.56
         1         4        15          631.66          5000.0          628.66
         1         4        16          631.66          5000.0          628.66
         1         4        18          634.75          5000.0          631.75
         1         4        19          638.21          5000.0          635.21
         1         5        10           618.2          5000.0           615.2
         1         5        11          619.05          5000.0          616.05
         1         5        12           621.8          5000.0           618.8
         1         6        10          616.05          5000.0          613.05
         1         7         8          612.83          5000.0          609.83
         1         7         9          613.09          5000.0          610.09
         1         7        10          615.23          5000.0          612.23
         1         8         8          610.38          5000.0          607.38
         1         9         8          608.67          5000.0          605.67
         1         9        24          588.66          5000.0          585.66
         1        10         7          608.34          5000.0          605.34
         1        10         8          607.04          5000.0          604.04
         1        10        22          588.66          5000.0          585.66
         1        10        23          576.22          5000.0          573.22
         1        10        24          576.22          5000.0          573.22
         1        11         8          606.32          5000.0          603.32
         1        11        21          585.05          5000.0          582.05
         1        11        22          576.22          5000.0          573.22
         1        11        23          576.22          5000.0          573.22
         1        12         8          603.75          5000.0          600.75
         1        12        21          576.22          5000.0          573.22
         1        12        22          576.22          5000.0          573.22
         1        13         8          602.53          5000.0          599.53
         1        13        20          584.72          5000.0          581.72
         1        13        21          576.22          5000.0          573.22
         1        14         7          601.43          5000.0          598.43
         1        14         8          601.97          5000.0          598.97
         1        14        20          578.82          5000.0          575.82
         1        14        21          576.22          5000.0          573.22
         1        15         6          600.98          5000.0          597.98
         1        15         7          599.85          5000.0          596.85
         1        15        20          578.55          5000.0          575.55
         1        15        21          576.22          5000.0          573.22
         1        16         6          596.76          5000.0          593.76
         1        16         7          598.44          5000.0          595.44
         1        16        20          568.63          5000.0          565.63
         1        16        21          573.88          5000.0          570.88
         1        17         6          593.22          5000.0          590.22
         1        17        20          559.61          5000.0          556.61
         1        17        21          573.88          5000.0          570.88
         1        18         5          592.85          5000.0          589.85
         1        18         6          592.94          5000.0          589.94
         1        18        20          559.61          5000.0          556.61
         1        18        21          573.88          5000.0          570.88
         1        19         5          588.64          5000.0          585.64
         1        19        20          559.61          5000.0          556.61
         1        19        21          568.74          5000.0          565.74
         1        20         4          587.51          5000.0          584.51
         1        20         5           588.0          5000.0           585.0
         1        20        20          558.79          5000.0          555.79
         1        20        21          562.81          5000.0          559.81
         1        20        22          574.92          5000.0          571.92
         1        21         3          585.85          5000.0          582.85
         1        21         4          586.64          5000.0          583.64
         1        21        20          548.62          5000.0          545.62
         1        21        21          557.15          5000.0          554.15
         1        21        22          574.92          5000.0          571.92
         1        22         3          584.49          5000.0          581.49
         1        22         8          584.79          5000.0          581.79
         1        22        20          544.92          5000.0          541.92
         1        22        21          554.88          5000.0          551.88
         1        23         3          582.42          5000.0          579.42
         1        23         4          582.42          5000.0          579.42
         1        23         8          582.74          5000.0          579.74
         1        23        19          544.92          5000.0          541.92
         1        23        20          545.54          5000.0          542.54
         1        23        21          560.62          5000.0          557.62
         1        24         4          582.02          5000.0          579.02
         1        24         5          581.78          5000.0          578.78
         1        24         6          581.25          5000.0          578.25
         1        24         7          580.51          5000.0          577.51
         1        24         8          582.74          5000.0          579.74
         1        24        19          540.97          5000.0          537.97
         1        24        20          540.97          5000.0          537.97
         1        24        21          563.45          5000.0          560.45
         1        25         7          579.67          5000.0          576.67
         1        25        19          538.48          5000.0          535.48
         1        25        20          553.43          5000.0          550.43
         1        26         7          580.34          5000.0          577.34
         1        26         8          577.51          5000.0          574.51
         1        26        19          538.03          5000.0          535.03
         1        26        20          542.37          5000.0          539.37
         1        27         8          575.83          5000.0          572.83
         1        27        19          537.83          5000.0          534.83
         1        27        20          538.06          5000.0          535.06
         1        28         8          574.83          5000.0          571.83
         1        28        19          537.54          5000.0          534.54
         1        29         8          572.88          5000.0          569.88
         1        29        19          537.15          5000.0          534.15
         1        30         7          567.53          5000.0          564.53
         1        30         8          571.91          5000.0          568.91
         1        30        19          537.11          5000.0          534.11
         1        30        23          560.89          5000.0          557.89
         1        30        24          560.15          5000.0          557.15
         1        31         6           561.2          5000.0           558.2
         1        31         7          561.85          5000.0          558.85
         1        31        18          536.69          5000.0          533.69
         1        31        19          537.04          5000.0          534.04
         1        31        20           526.8          5000.0           523.8
         1        31        21          528.61          5000.0          525.61
         1        31        22          543.81          5000.0          540.81
         1        31        23           556.5          5000.0           553.5
         1        31        24          560.15          5000.0          557.15
         1        32         6          560.23          5000.0          557.23
         1        32        18          536.69          5000.0          533.69
         1        32        20          519.48          5000.0          516.48
         1        33         5          556.68          5000.0          553.68
         1        33         6          557.57          5000.0          554.57
         1        33        17          536.63          5000.0          533.63
         1        33        18          513.06          5000.0          510.06
         1        33        19          514.01          5000.0          511.01
         1        33        20          518.63          5000.0          515.63
         1        34         4          556.23          5000.0          553.23
         1        34         5          556.68          5000.0          553.68
         1        34        16          503.66          5000.0          500.66
         1        34        17          503.66          5000.0          500.66
         1        34        18          509.42          5000.0          506.42
         1        35         4          547.82          5000.0          544.82
         1        35         5          547.68          5000.0          544.68
         1        35        15          503.45          5000.0          500.45
         1        35        16          503.45          5000.0          500.45
         1        36         5          544.37          5000.0          541.37
         1        36        14          503.45          5000.0          500.45
         1        36        15          503.45          5000.0          500.45
         1        37         5          540.49          5000.0          537.49
         1        37        13          503.36          5000.0          500.36
         1        37        14          503.41          5000.0          500.41
         1        38         5          530.27          5000.0          527.27
         1        38        11          503.36          5000.0          500.36
         1        38        12          503.36          5000.0          500.36
         1        38        13          503.36          5000.0          500.36
         1        39         5          523.63          5000.0          520.63
         1        39        10          503.36          5000.0          500.36
         1        39        11          503.36          5000.0          500.36
         1        40         4          517.93          5000.0          514.93
         1        40         5           520.4          5000.0           517.4
         1        40        10          503.36          5000.0          500.36
         1        41         2          516.16          5000.0          513.16
         1        41         3          517.46          5000.0          514.46
         1        41         4          517.46          5000.0          514.46
         1        41        10          503.36          5000.0          500.36
         1        42         2          513.65          5000.0       510.65002
         1        42        10          503.36          5000.0          500.36
         1        43         2          513.39          5000.0          510.39
         1        43         9          503.36          5000.0          500.36
         1        43        10          503.36          5000.0          500.36
         1        44         2          513.39          5000.0          510.39
         1        44         9          503.36          5000.0          500.36
         1        44        18          592.18          5000.0          589.18
         1        44        19          596.27          5000.0          593.27
         1        44        20          602.13          5000.0          599.13
         1        45         2          515.89          5000.0          512.89
         1        45         3          513.39          5000.0          510.39
         1        45         7          503.36          5000.0          500.36
         1        45         8          503.36          5000.0          500.36
         1        45         9          503.36          5000.0          500.36
         1        45        10          503.36          5000.0          500.36
         1        45        15           578.5          5000.0           575.5
         1        45        16          582.01          5000.0          579.01
         1        45        17          582.41          5000.0          579.41
         1        45        18          589.29          5000.0          586.29
         1        46         3          503.36          5000.0          500.36
         1        46         4          503.36          5000.0          500.36
         1        46         5          503.43          5000.0          500.43
         1        46         6          503.36          5000.0          500.36
         1        46         7          503.36          5000.0          500.36
         1        46        10          520.48          5000.0          517.48
         1        46        13          574.56          5000.0          571.56
         1        46        14          573.64          5000.0          570.64
         1        46        15          578.43          5000.0          575.43
         1        46        16           579.7          5000.0           576.7
         1        46        17          582.73          5000.0          579.73
         1        46        18           585.7          5000.0           582.7
         1        47         4          503.36          5000.0          500.36
         1        47         5          503.36          5000.0          500.36
         1        47        10          526.15          5000.0          523.15
         1        47        11          542.42          5000.0          539.42
         1        47        12          549.46          5000.0          546.46
         1        47        13          559.68          5000.0          556.68
         1        47        14          573.36          5000.0          570.36
         1        48         4          503.36          5000.0          500.36
         1        48         5          503.36          5000.0          500.36
         1        48        10          532.53          5000.0          529.53
         1        48        11          535.68          5000.0          532.68
