# BAS6 package for  MODFLOW-2005, generated by Flopy.
FREE
INTERNAL               1    (10I10) -1 #ibound layer 1                
        -1         1         1         1         1         1         1         1         1        -1
        -1         1         1         1         1         1         1         1         1        -1
        -1         1         1         1         1         1         1         1         1        -1
        -1         1         1         1         1         1         1         1         1        -1
        -1         1         1         1         1         1         1         1         1        -1
        -1         1         1         1         1         1         1         1         1        -1
        -1         1         1         1         1         1         1         1         1        -1
        -1         1         1         1         1         1         1         1         1        -1
        -1         1         1         1         1         1         1         1         1        -1
        -1         1         1         1         1         1         1         1         1        -1
   -999.99
INTERNAL               1  (10E15.6) -1 #strt layer 1                  
   1.000000E+01   5.000000E+00   5.000000E+00   5.000000E+00   5.000000E+00   5.000000E+00   5.000000E+00   5.000000E+00   5.000000E+00   0.000000E+00
   1.000000E+01   5.000000E+00   5.000000E+00   5.000000E+00   5.000000E+00   5.000000E+00   5.000000E+00   5.000000E+00   5.000000E+00   0.000000E+00
   1.000000E+01   5.000000E+00   5.000000E+00   5.000000E+00   5.000000E+00   5.000000E+00   5.000000E+00   5.000000E+00   5.000000E+00   0.000000E+00
   1.000000E+01   5.000000E+00   5.000000E+00   5.000000E+00   5.000000E+00   5.000000E+00   5.000000E+00   5.000000E+00   5.000000E+00   0.000000E+00
   1.000000E+01   5.000000E+00   5.000000E+00   5.000000E+00   5.000000E+00   5.000000E+00   5.000000E+00   5.000000E+00   5.000000E+00   0.000000E+00
   1.000000E+01   5.000000E+00   5.000000E+00   5.000000E+00   5.000000E+00   5.000000E+00   5.000000E+00   5.000000E+00   5.000000E+00   0.000000E+00
   1.000000E+01   5.000000E+00   5.000000E+00   5.000000E+00   5.000000E+00   5.000000E+00   5.000000E+00   5.000000E+00   5.000000E+00   0.000000E+00
   1.000000E+01   5.000000E+00   5.000000E+00   5.000000E+00   5.000000E+00   5.000000E+00   5.000000E+00   5.000000E+00   5.000000E+00   0.000000E+00
   1.000000E+01   5.000000E+00   5.000000E+00   5.000000E+00   5.000000E+00   5.000000E+00   5.000000E+00   5.000000E+00   5.000000E+00   0.000000E+00
   1.000000E+01   5.000000E+00   5.000000E+00   5.000000E+00   5.000000E+00   5.000000E+00   5.000000E+00   5.000000E+00   5.000000E+00   0.000000E+00
